SandboxData_C2S7_20210305/C2S7N02020/scenario_002/case.raw
0,100.0,33,0,0,60.0
GRID OPTIMIZATION COMPETITION CHALLENGE 2
INPUT DATA FILES ARE RAW JSON CON
1,'ADAMS 1 1',69.0,1,1,1,1,1.00965559,-19.19912,1.1,0.9,1.1,0.9
2,'ADAMS 2 1',69.0,1,1,1,1,1.01742423,-20.459255,1.1,0.9,1.1,0.9
3,'ADAMS 3 1',69.0,1,1,1,1,0.99958742,-17.733374,1.1,0.9,1.1,0.9
4,'ALEXANDRIA~1',69.0,1,1,1,1,1.02352631,-21.403701,1.1,0.9,1.1,0.9
5,'ALEXANDRIA~2',69.0,1,1,1,1,1.02350199,-21.405647,1.1,0.9,1.1,0.9
6,'ALEXANDRIA~3',69.0,1,1,1,1,1.02660835,-20.50917,1.1,0.9,1.1,0.9
7,'ANTIOCH 1 1',138.0,1,1,1,1,1.01625872,-21.468094,1.1,0.9,1.1,0.9
8,'ANTIOCH 1 2',69.0,1,1,1,1,1.01483846,-22.961288,1.1,0.9,1.1,0.9
9,'ANTIOCH 1 3',138.0,1,1,1,1,1.01650035,-21.405162,1.1,0.9,1.1,0.9
10,'ANTIOCH 2 1',138.0,1,1,1,1,1.01617324,-20.720169,1.1,0.9,1.1,0.9
11,'ANTIOCH 2 2',69.0,1,1,1,1,1.00681984,-22.846062,1.1,0.9,1.1,0.9
12,'ANTIOCH 3 1',69.0,1,1,1,1,1.00943208,-22.304034,1.1,0.9,1.1,0.9
13,'ANTIOCH 4 1',138.0,1,1,1,1,1.01923788,-20.682151,1.1,0.9,1.1,0.9
14,'ANTIOCH 4 2',69.0,1,1,1,1,1.00852561,-22.786968,1.1,0.9,1.1,0.9
15,'ANTIOCH 5 1',69.0,1,1,1,1,1.01101458,-23.255961,1.1,0.9,1.1,0.9
16,'ASHLAND CI~1',69.0,1,1,1,1,0.99930495,-19.040974,1.1,0.9,1.1,0.9
17,'ASHLAND CI~2',69.0,1,1,1,1,0.99709904,-19.537454,1.1,0.9,1.1,0.9
18,'ASHLAND CI~3',69.0,1,1,1,1,1.00201702,-18.559291,1.1,0.9,1.1,0.9
19,'ASHLAND CI~4',138.0,1,1,1,1,1.02510118,-15.627898,1.1,0.9,1.1,0.9
20,'ASHLAND CI~5',69.0,1,1,1,1,1.00792646,-18.050716,1.1,0.9,1.1,0.9
21,'ASHLAND CI~6',138.0,1,1,1,1,1.02500296,-15.608746,1.1,0.9,1.1,0.9
22,'BEECHGROVE 1',69.0,1,1,1,1,1.02402937,-22.132885,1.1,0.9,1.1,0.9
23,'BELL BUCKL~1',69.0,1,1,1,1,1.01030099,-24.466344,1.1,0.9,1.1,0.9
24,'BELL BUCKL~2',69.0,1,1,1,1,1.00547767,-24.350243,1.1,0.9,1.1,0.9
25,'BELL BUCKL~3',69.0,1,1,1,1,1.01337802,-22.458526,1.1,0.9,1.1,0.9
26,'BELL BUCKL~4',69.0,1,1,1,1,1.01335359,-22.461625,1.1,0.9,1.1,0.9
27,'BETHPAGE 1 1',69.0,1,1,1,1,1.00992942,-23.415471,1.1,0.9,1.1,0.9
28,'BETHPAGE 1 2',69.0,1,1,1,1,1.00991392,-23.418099,1.1,0.9,1.1,0.9
29,'BETHPAGE 2 1',69.0,1,1,1,1,1.01178598,-22.875769,1.1,0.9,1.1,0.9
30,'BIG ROCK 1',69.0,1,1,1,1,1.00458467,-10.760569,1.1,0.9,1.1,0.9
31,'BON AQUA 1 1',69.0,1,1,1,1,1.00569808,-19.810141,1.1,0.9,1.1,0.9
32,'BON AQUA 2 1',69.0,1,1,1,1,1.01975822,-18.762842,1.1,0.9,1.1,0.9
33,'BON AQUA 3 1',69.0,1,1,1,1,1.03973889,-19.331744,1.1,0.9,1.1,0.9
34,'BRENTWOOD ~1',138.0,1,1,1,1,1.0198729,-18.200547,1.1,0.9,1.1,0.9
35,'BRENTWOOD ~2',69.0,1,1,1,1,1.01719427,-21.251524,1.1,0.9,1.1,0.9
36,'BRENTWOOD ~3',138.0,1,1,1,1,1.02031386,-18.122901,1.1,0.9,1.1,0.9
37,'BRENTWOOD ~4',138.0,1,1,1,1,1.01846492,-18.728848,1.1,0.9,1.1,0.9
38,'BRENTWOOD ~5',69.0,1,1,1,1,1.0175252,-22.113371,1.1,0.9,1.1,0.9
39,'BRENTWOOD ~6',69.0,1,1,1,1,1.01857996,-22.02139,1.1,0.9,1.1,0.9
40,'BRENTWOOD ~7',69.0,1,1,1,1,1.01868653,-22.037858,1.1,0.9,1.1,0.9
41,'BRENTWOOD ~8',69.0,1,1,1,1,1.01540184,-21.767702,1.1,0.9,1.1,0.9
42,'BRENTWOOD ~9',69.0,1,1,1,1,1.00729465,-22.600223,1.1,0.9,1.1,0.9
43,'BRENTWOOD~10',69.0,1,1,1,1,1.0072068,-22.618093,1.1,0.9,1.1,0.9
44,'BURNS 1 1',69.0,1,1,1,1,1.02898812,-19.770522,1.1,0.9,1.1,0.9
45,'BURNS 1 2',69.0,1,1,1,1,1.02900767,-19.768412,1.1,0.9,1.1,0.9
46,'BURNS 2 1',69.0,1,1,1,1,0.99755639,-20.511803,1.1,0.9,1.1,0.9
47,'CARTHAGE 1 1',69.0,1,1,1,1,1.02285087,-21.443171,1.1,0.9,1.1,0.9
48,'CARTHAGE 2 1',69.0,1,1,1,1,1.02292538,-21.595185,1.1,0.9,1.1,0.9
49,'CARTHAGE 2 2',69.0,1,1,1,1,1.02295017,-21.591715,1.1,0.9,1.1,0.9
50,'CARTHAGE 3 1',69.0,1,1,1,1,1.01972079,-21.732094,1.1,0.9,1.1,0.9
51,'CARTHAGE 3 2',69.0,1,1,1,1,1.01967287,-21.737881,1.1,0.9,1.1,0.9
52,'CEDAR HILL~1',69.0,1,1,1,1,1.00188482,-17.844964,1.1,0.9,1.1,0.9
53,'CEDAR HILL~2',69.0,1,1,1,1,1.00007153,-17.821222,1.1,0.9,1.1,0.9
54,'CEDAR HILL~3',69.0,1,1,1,1,1.00005722,-17.822644,1.1,0.9,1.1,0.9
55,'CENTERVILL~1',138.0,1,1,1,1,1.02939856,-15.293313,1.1,0.9,1.1,0.9
56,'CENTERVILL~2',69.0,1,1,1,1,1.01603806,-15.852128,1.1,0.9,1.1,0.9
57,'CENTERVILL~3',138.0,1,1,1,1,1.02935028,-15.297151,1.1,0.9,1.1,0.9
58,'CENTERVILL~4',69.0,1,1,1,1,1.01675904,-14.994842,1.1,0.9,1.1,0.9
59,'CENTERVILL~5',69.0,1,1,1,1,1.01261306,-16.47681,1.1,0.9,1.1,0.9
60,'CHAPEL HIL~1',69.0,1,1,1,1,1.02346861,-24.231267,1.1,0.9,1.1,0.9
61,'CHAPEL HIL~2',69.0,1,1,1,1,1.00657725,-23.382466,1.1,0.9,1.1,0.9
62,'CHAPEL HIL~3',69.0,1,1,1,1,1.03655112,-24.204717,1.1,0.9,1.1,0.9
63,'CHAPMANSBO~1',69.0,1,1,1,1,1.00091207,-18.077562,1.1,0.9,1.1,0.9
64,'CHAPMANSBO~2',69.0,1,1,1,1,1.01057124,-17.712619,1.1,0.9,1.1,0.9
65,'CHARLOTTE ~1',69.0,1,1,1,1,1.00522923,-16.318652,1.1,0.9,1.1,0.9
66,'CHARLOTTE ~2',69.0,1,1,1,1,1.0091939,-16.272989,1.1,0.9,1.1,0.9
67,'CHARLOTTE ~3',69.0,1,1,1,1,1.00441229,-16.886439,1.1,0.9,1.1,0.9
68,'CHRISTIANA~1',69.0,1,1,1,1,1.01678419,-23.774611,1.1,0.9,1.1,0.9
69,'CHRISTIANA~2',69.0,1,1,1,1,1.02613926,-22.978563,1.1,0.9,1.1,0.9
70,'CLARKSVILL~1',138.0,1,1,1,1,1.01454365,-13.792226,1.1,0.9,1.1,0.9
71,'CLARKSVILL~2',69.0,1,1,1,1,1.01409686,-14.629236,1.1,0.9,1.1,0.9
72,'CLARKSVILL~3',138.0,1,1,1,1,1.01434982,-13.824906,1.1,0.9,1.1,0.9
73,'CLARKSVIL~12',138.0,1,1,1,1,1.01187909,-14.89662,1.1,0.9,1.1,0.9
74,'CLARKSVIL~13',69.0,1,1,1,1,0.99830824,-17.4567,1.1,0.9,1.1,0.9
75,'CLARKSVIL~14',138.0,1,1,1,1,1.01210654,-14.875399,1.1,0.9,1.1,0.9
76,'CLARKSVIL~15',345.0,1,1,1,1,1.03176677,-11.906476,1.1,0.9,1.1,0.9
77,'CLARKSVIL~16',138.0,1,1,1,1,1.02279842,-13.689798,1.1,0.9,1.1,0.9
78,'CLARKSVIL~17',69.0,1,1,1,1,1.01189196,-15.395335,1.1,0.9,1.1,0.9
79,'CLARKSVIL~18',69.0,1,1,1,1,1.00941527,-15.159147,1.1,0.9,1.1,0.9
80,'CLARKSVIL~19',69.0,1,1,1,1,1.00239766,-15.120811,1.1,0.9,1.1,0.9
81,'CLARKSVIL~20',69.0,1,1,1,1,1.00564921,-15.656494,1.1,0.9,1.1,0.9
82,'CLARKSVIL~21',138.0,1,1,1,1,1.01723111,-14.298985,1.1,0.9,1.1,0.9
83,'CLARKSVIL~22',69.0,1,1,1,1,1.00573754,-15.690099,1.1,0.9,1.1,0.9
84,'CLARKSVIL~23',138.0,1,1,1,1,1.01734316,-14.291363,1.1,0.9,1.1,0.9
85,'CLARKSVIL~24',138.0,1,1,1,1,1.02148449,-13.371291,1.1,0.9,1.1,0.9
86,'CLARKSVIL~25',69.0,1,1,1,1,1.01214862,-14.747861,1.1,0.9,1.1,0.9
87,'CLARKSVIL~26',138.0,1,1,1,1,1.02130914,-13.387251,1.1,0.9,1.1,0.9
88,'CLARKSVIL~27',138.0,1,1,1,1,1.01740789,-11.818362,1.1,0.9,1.1,0.9
89,'CLARKSVIL~28',69.0,1,1,1,1,1.00122249,-14.146661,1.1,0.9,1.1,0.9
90,'CLARKSVILL~4',138.0,1,1,1,1,1.02194345,-14.913424,1.1,0.9,1.1,0.9
91,'CLARKSVILL~5',69.0,1,1,1,1,1.01594734,-17.099286,1.1,0.9,1.1,0.9
92,'CLARKSVILL~6',138.0,1,1,1,1,1.0220896,-14.891612,1.1,0.9,1.1,0.9
93,'CLARKSVILL~7',69.0,1,1,1,1,1.00980341,-15.480979,1.1,0.9,1.1,0.9
94,'CLARKSVILL~8',69.0,1,1,1,1,1.00984001,-15.476814,1.1,0.9,1.1,0.9
95,'CLARKSVILL~9',69.0,1,1,1,1,1.00263631,-17.397733,1.1,0.9,1.1,0.9
96,'CLARKSVIL~10',138.0,1,1,1,1,1.02051628,-13.951706,1.1,0.9,1.1,0.9
97,'CLARKSVIL~11',69.0,1,1,1,1,1.01165915,-15.166732,1.1,0.9,1.1,0.9
98,'COLLEGE GR~1',69.0,1,1,1,1,1.02449191,-22.883007,1.1,0.9,1.1,0.9
99,'COLLEGE GR~2',69.0,1,1,1,1,1.02064967,-23.006109,1.1,0.9,1.1,0.9
100,'COLLEGE GR~3',69.0,1,1,1,1,1.01290131,-24.049298,1.1,0.9,1.1,0.9
101,'CORNERSVIL~1',69.0,1,1,1,1,1.01206076,-20.583441,1.1,0.9,1.1,0.9
102,'CORNERSVIL~2',69.0,1,1,1,1,1.01203752,-20.58603,1.1,0.9,1.1,0.9
103,'COTTONTOWN~1',69.0,1,1,1,1,1.02549291,-22.552018,1.1,0.9,1.1,0.9
104,'COTTONTOWN~2',69.0,1,1,1,1,1.02138042,-24.14283,1.1,0.9,1.1,0.9
105,'CROSS PLAI~1',69.0,1,1,1,1,1.01636672,-23.762629,1.1,0.9,1.1,0.9
106,'CUMBERLAND~7',69.0,1,1,1,1,1.02073574,-11.616831,1.1,0.9,1.1,0.9
107,'CUMBERLAND~8',69.0,1,1,1,1,1.01235747,-15.646613,1.1,0.9,1.1,0.9
108,'CUMBERLAND~9',69.0,1,1,1,1,1.01128638,-15.029252,1.1,0.9,1.1,0.9
109,'CUNNINGHAM 1',69.0,1,1,1,1,1.00556099,-15.947283,1.1,0.9,1.1,0.9
110,'DICKSON 1 1',69.0,1,1,1,1,1.02914512,-18.072262,1.1,0.9,1.1,0.9
111,'DICKSON 1 2',69.0,1,1,1,1,1.02910876,-18.078076,1.1,0.9,1.1,0.9
112,'DICKSON 2 1',138.0,1,1,1,1,1.02456284,-15.06241,1.1,0.9,1.1,0.9
113,'DICKSON 2 2',69.0,1,1,1,1,1.00970995,-16.682085,1.1,0.9,1.1,0.9
114,'DICKSON 2 3',138.0,1,1,1,1,1.02468157,-15.05504,1.1,0.9,1.1,0.9
115,'DICKSON 3 1',138.0,1,1,1,1,1.02483237,-12.031579,1.1,0.9,1.1,0.9
116,'DICKSON 3 2',69.0,1,1,1,1,1.01835692,-13.962692,1.1,0.9,1.1,0.9
117,'DICKSON 4 1',69.0,1,1,1,1,1.00953758,-16.579191,1.1,0.9,1.1,0.9
118,'DOVER 1 1',138.0,1,1,1,1,1.02954173,-9.753751,1.1,0.9,1.1,0.9
119,'DOVER 1 2',69.0,1,1,1,1,1.02026844,-8.482647,1.1,0.9,1.1,0.9
120,'DOVER 1 3',138.0,1,1,1,1,1.02959335,-9.770713,1.1,0.9,1.1,0.9
121,'DOVER 2 1',69.0,1,1,1,1,1.01458991,-8.899185,1.1,0.9,1.1,0.9
122,'DOVER 3 1',69.0,1,1,1,1,1.02255177,-7.835532,1.1,0.9,1.1,0.9
123,'DOVER 3 2',69.0,1,1,1,1,1.02253532,-7.83835,1.1,0.9,1.1,0.9
124,'DOWELLTOWN 1',69.0,1,1,1,1,1.02884769,-19.748175,1.1,0.9,1.1,0.9
125,'ERIN 1 1',69.0,1,1,1,1,1.01562798,-13.505571,1.1,0.9,1.1,0.9
126,'ERIN 2 1',69.0,1,1,1,1,1.00835967,-15.452198,1.1,0.9,1.1,0.9
127,'ERIN 3 1',69.0,1,1,1,1,1.02245486,-9.769124,1.1,0.9,1.1,0.9
128,'FAIRVIEW 1 1',69.0,1,1,1,1,0.99184918,-21.442406,1.1,0.9,1.1,0.9
129,'FAIRVIEW 2 1',69.0,1,1,1,1,1.00831771,-21.576684,1.1,0.9,1.1,0.9
130,'FAIRVIEW 3 1',138.0,1,1,1,1,1.03540885,-16.597565,1.1,0.9,1.1,0.9
131,'FAIRVIEW 3 2',69.0,1,1,1,1,1.0190593,-20.373749,1.1,0.9,1.1,0.9
132,'FRANKLIN 1 1',69.0,1,1,1,1,0.98130172,-24.291411,1.1,0.9,1.1,0.9
133,'FRANKLIN 2 1',69.0,1,1,1,1,0.98654747,-23.632731,1.1,0.9,1.1,0.9
134,'FRANKLIN 3 1',138.0,1,1,1,1,1.00334942,-19.934718,1.1,0.9,1.1,0.9
135,'FRANKLIN 3 2',69.0,1,1,1,1,0.97589159,-24.82114,1.1,0.9,1.1,0.9
136,'FRANKLIN 4 1',138.0,1,1,1,1,1.01883984,-18.58996,1.1,0.9,1.1,0.9
137,'FRANKLIN 4 2',69.0,1,1,1,1,0.9863345,-23.79682,1.1,0.9,1.1,0.9
138,'FRANKLIN 5 1',69.0,1,1,1,1,0.99202973,-23.082218,1.1,0.9,1.1,0.9
139,'GALLATIN 1 1',138.0,1,1,1,1,1.02727246,-19.252387,1.1,0.9,1.1,0.9
140,'GALLATIN 1 2',69.0,1,1,1,1,1.02139413,-20.578219,1.1,0.9,1.1,0.9
141,'GALLATIN 2 1',69.0,1,1,1,1,1.02614474,-20.277913,1.1,0.9,1.1,0.9
142,'GALLATIN 2 2',69.0,1,1,1,1,1.02608228,-20.28524,1.1,0.9,1.1,0.9
143,'GALLATIN 3 1',138.0,1,1,1,1,1.03180301,-19.836573,1.1,0.9,1.1,0.9
144,'GALLATIN 3 2',69.0,1,1,1,1,1.01545334,-22.033606,1.1,0.9,1.1,0.9
145,'FRANKLIN 6 1',69.0,1,1,1,1,1.01881588,-22.373743,1.1,0.9,1.1,0.9
146,'FRANKLIN 7 1',69.0,1,1,1,1,1.0209142,-22.232187,1.1,0.9,1.1,0.9
147,'FRANKLIN 8 1',69.0,1,1,1,1,1.01258945,-21.968585,1.1,0.9,1.1,0.9
148,'FRANKLIN 9 1',69.0,1,1,1,1,1.02613962,-22.698399,1.1,0.9,1.1,0.9
149,'FRANKLIN 1~1',69.0,1,1,1,1,1.01535761,-21.716764,1.1,0.9,1.1,0.9
150,'FRANKLIN 1~2',69.0,1,1,1,1,1.01530612,-21.722877,1.1,0.9,1.1,0.9
151,'FRANKLIN 1~3',69.0,1,1,1,1,1.01547575,-21.390245,1.1,0.9,1.1,0.9
152,'FRANKLIN 1~4',69.0,1,1,1,1,1.01057136,-21.817144,1.1,0.9,1.1,0.9
153,'FRANKLIN 1~5',69.0,1,1,1,1,0.9716385,-25.39703,1.1,0.9,1.1,0.9
154,'GOODLETTSV~1',69.0,1,1,1,1,1.04260957,-23.742474,1.1,0.9,1.1,0.9
155,'GOODLETTSV~2',69.0,1,1,1,1,1.00679541,-21.933372,1.1,0.9,1.1,0.9
156,'GOODLETTSV~3',138.0,1,1,1,1,1.02347445,-19.776277,1.1,0.9,1.1,0.9
157,'GOODLETTSV~4',69.0,1,1,1,1,1.01276982,-21.80075,1.1,0.9,1.1,0.9
158,'GREENBRIER~1',69.0,1,1,1,1,1.00253534,-19.791183,1.1,0.9,1.1,0.9
159,'GREENBRIER~2',69.0,1,1,1,1,1.00810027,-21.919465,1.1,0.9,1.1,0.9
160,'GREENBRIER~3',69.0,1,1,1,1,1.01518452,-22.009373,1.1,0.9,1.1,0.9
161,'HARTSVILLE~1',69.0,1,1,1,1,1.02209246,-22.027285,1.1,0.9,1.1,0.9
162,'HARTSVILLE~2',138.0,1,1,1,1,1.03065825,-19.096056,1.1,0.9,1.1,0.9
163,'HARTSVILLE~3',69.0,1,1,1,1,1.02696097,-21.17667,1.1,0.9,1.1,0.9
164,'HENDERSONV~1',69.0,1,1,1,1,1.01106918,-21.526419,1.1,0.9,1.1,0.9
165,'HENDERSONV~2',138.0,1,1,1,1,1.02368736,-19.766832,1.1,0.9,1.1,0.9
166,'HENDERSONV~3',69.0,1,1,1,1,1.00709915,-21.465343,1.1,0.9,1.1,0.9
167,'HENDERSONV~4',69.0,1,1,1,1,1.02142966,-21.59024,1.1,0.9,1.1,0.9
168,'HENDERSONV~5',138.0,1,1,1,1,1.02563417,-19.289262,1.1,0.9,1.1,0.9
169,'HENDERSONV~6',69.0,1,1,1,1,1.01516044,-21.192523,1.1,0.9,1.1,0.9
170,'HENDERSONV~7',138.0,1,1,1,1,1.02550352,-19.304466,1.1,0.9,1.1,0.9
171,'HENDERSONV~8',69.0,1,1,1,1,1.00462544,-21.73199,1.1,0.9,1.1,0.9
172,'HERMITAGE ~1',69.0,1,1,1,1,1.00535047,-22.88277,1.1,0.9,1.1,0.9
173,'HERMITAGE ~2',138.0,1,1,1,1,1.01910257,-20.294466,1.1,0.9,1.1,0.9
174,'HERMITAGE ~3',69.0,1,1,1,1,1.00803566,-23.076255,1.1,0.9,1.1,0.9
175,'HERMITAGE ~4',69.0,1,1,1,1,1.01003265,-21.815675,1.1,0.9,1.1,0.9
176,'HERMITAGE ~5',69.0,1,1,1,1,1.01345205,-21.744122,1.1,0.9,1.1,0.9
177,'JOELTON 1 1',69.0,1,1,1,1,0.99485469,-22.704254,1.1,0.9,1.1,0.9
178,'JOELTON 1 2',69.0,1,1,1,1,0.99489397,-22.701962,1.1,0.9,1.1,0.9
179,'JOELTON 2 1',69.0,1,1,1,1,1.00108409,-19.300463,1.1,0.9,1.1,0.9
180,'KINGSTON S~1',69.0,1,1,1,1,0.99807978,-20.249037,1.1,0.9,1.1,0.9
181,'KINGSTON S~2',69.0,1,1,1,1,1.01191342,-20.321741,1.1,0.9,1.1,0.9
182,'KINGSTON S~3',69.0,1,1,1,1,1.01189303,-20.32556,1.1,0.9,1.1,0.9
183,'KINGSTON S~4',69.0,1,1,1,1,0.99940556,-20.788893,1.1,0.9,1.1,0.9
184,'LAFAYETTE ~1',138.0,1,1,1,1,1.04054403,-24.955413,1.1,0.9,1.1,0.9
185,'LAFAYETTE ~2',69.0,1,1,1,1,1.0310986,-25.760624,1.1,0.9,1.1,0.9
186,'LAFAYETTE ~3',138.0,1,1,1,1,1.04063809,-24.950553,1.1,0.9,1.1,0.9
187,'LAFAYETTE ~4',69.0,1,1,1,1,1.02075446,-21.690623,1.1,0.9,1.1,0.9
188,'LAFAYETTE ~5',138.0,1,1,1,1,1.04428589,-24.704531,1.1,0.9,1.1,0.9
189,'LAFAYETTE ~6',69.0,1,1,1,1,1.0348109,-24.731946,1.1,0.9,1.1,0.9
190,'LAFAYETTE ~7',138.0,1,1,1,1,1.04425824,-24.708513,1.1,0.9,1.1,0.9
191,'LASCASSAS ~1',69.0,1,1,1,1,1.02366185,-21.217093,1.1,0.9,1.1,0.9
192,'LASCASSAS ~2',69.0,1,1,1,1,1.03911352,-21.930346,1.1,0.9,1.1,0.9
193,'LA VERGNE ~1',69.0,1,1,1,1,1.01941597,-21.356202,1.1,0.9,1.1,0.9
194,'LA VERGNE ~2',69.0,1,1,1,1,1.01207483,-23.015878,1.1,0.9,1.1,0.9
195,'LA VERGNE ~3',69.0,1,1,1,1,1.00979424,-23.144255,1.1,0.9,1.1,0.9
196,'LA VERGNE ~4',69.0,1,1,1,1,1.02412415,-23.222271,1.1,0.9,1.1,0.9
197,'LEBANON 1 1',138.0,1,1,1,1,1.0308646,-19.246706,1.1,0.9,1.1,0.9
198,'LEBANON 1 2',69.0,1,1,1,1,1.0298003,-20.309556,1.1,0.9,1.1,0.9
199,'LEBANON 1 3',138.0,1,1,1,1,1.03081179,-19.255398,1.1,0.9,1.1,0.9
200,'LEBANON 2 1',138.0,1,1,1,1,1.02673638,-20.386354,1.1,0.9,1.1,0.9
...
0 / END OF BUS DATA BEGIN LOAD DATA
1,'1',1,1,1,2.436,0.228,0.0,0.0,0.0,0.0,1,1,0
2,'1',1,1,1,2.775,0.923,0.0,0.0,0.0,0.0,1,1,0
3,'1',1,1,1,6.616,1.848,0.0,0.0,0.0,0.0,1,1,0
5,'1',1,1,1,3.69,1.294,0.0,0.0,0.0,0.0,1,1,0
6,'1',1,1,1,2.372,0.244,0.0,0.0,0.0,0.0,1,1,0
8,'1',1,1,1,26.213,3.903,0.0,0.0,0.0,0.0,1,1,0
11,'1',1,1,1,26.031,8.197,0.0,0.0,0.0,0.0,1,1,0
12,'1',1,1,1,32.982,5.639,0.0,0.0,0.0,0.0,1,1,0
14,'1',1,1,1,36.241,8.351,0.0,0.0,0.0,0.0,1,1,0
15,'1',1,1,1,20.388,4.962,0.0,0.0,0.0,0.0,1,1,0
16,'1',1,1,1,11.17,1.27,0.0,0.0,0.0,0.0,1,1,0
17,'1',1,1,1,8.888,4.003,0.0,0.0,0.0,0.0,1,1,0
18,'1',1,1,1,14.628,9.455,0.0,0.0,0.0,0.0,1,1,0
20,'1',1,1,1,8.067,2.318,0.0,0.0,0.0,0.0,1,1,0
22,'1',1,1,1,3.994,1.407,0.0,0.0,0.0,0.0,1,1,0
23,'1',1,1,1,3.904,0.797,0.0,0.0,0.0,0.0,1,1,0
24,'1',1,1,1,6.533,2.188,0.0,0.0,0.0,0.0,1,1,0
26,'1',1,1,1,2.202,0.434,0.0,0.0,0.0,0.0,1,1,0
28,'1',1,1,1,4.266,0.369,0.0,0.0,0.0,0.0,1,1,0
29,'1',1,1,1,7.814,1.854,0.0,0.0,0.0,0.0,1,1,0
30,'1',1,1,1,5.826,2.927,0.0,0.0,0.0,0.0,1,1,0
31,'1',1,1,1,3.297,0.519,0.0,0.0,0.0,0.0,1,1,0
32,'1',1,1,1,15.09,5.535,0.0,0.0,0.0,0.0,1,1,0
33,'1',1,1,1,4.86,0.486,0.0,0.0,0.0,0.0,1,1,0
35,'1',1,1,1,22.95,2.61,0.0,0.0,0.0,0.0,1,1,0
38,'1',1,1,1,20.479,10.464,0.0,0.0,0.0,0.0,1,1,0
40,'1',1,1,1,23.31,0.741,0.0,0.0,0.0,0.0,1,1,0
41,'1',1,1,1,25.5,7.05,0.0,0.0,0.0,0.0,1,1,0
43,'1',1,1,1,27.699,2.129,0.0,0.0,0.0,0.0,1,1,0
44,'1',1,1,1,3.481,0.87,0.0,0.0,0.0,0.0,1,1,0
46,'1',1,1,1,8.819,4.961,0.0,0.0,0.0,0.0,1,1,0
47,'1',1,1,1,4.752,1.602,0.0,0.0,0.0,0.0,1,1,0
48,'1',1,1,1,5.876,1.016,0.0,0.0,0.0,0.0,1,1,0
51,'1',1,1,1,9.278,1.999,0.0,0.0,0.0,0.0,1,1,0
52,'1',1,1,1,4.598,0.343,0.0,0.0,0.0,0.0,1,1,0
54,'1',1,1,1,2.383,0.698,0.0,0.0,0.0,0.0,1,1,0
57,'1',1,1,1,7.152,2.564,0.0,0.0,0.0,0.0,1,1,0
58,'1',1,1,1,6.084,2.268,0.0,0.0,0.0,0.0,1,1,0
59,'1',1,1,1,6.084,1.548,0.0,0.0,0.0,0.0,1,1,0
60,'1',1,1,1,4.677,0.966,0.0,0.0,0.0,0.0,1,1,0
61,'1',1,1,1,6.459,3.059,0.0,0.0,0.0,0.0,1,1,0
62,'1',1,1,1,4.256,0.887,0.0,0.0,0.0,0.0,1,1,0
63,'1',1,1,1,5.817,0.775,0.0,0.0,0.0,0.0,1,1,0
64,'1',1,1,1,2.269,0.306,0.0,0.0,0.0,0.0,1,1,0
65,'1',1,1,1,7.272,1.732,0.0,0.0,0.0,0.0,1,1,0
66,'1',1,1,1,4.671,0.993,0.0,0.0,0.0,0.0,1,1,0
67,'1',1,1,1,2.358,0.241,0.0,0.0,0.0,0.0,1,1,0
68,'1',1,1,1,6.137,2.266,0.0,0.0,0.0,0.0,1,1,0
69,'1',1,1,1,3.282,1.326,0.0,0.0,0.0,0.0,1,1,0
72,'1',1,1,1,51.02,6.271,0.0,0.0,0.0,0.0,1,1,0
74,'1',1,1,1,43.8,17.145,0.0,0.0,0.0,0.0,1,1,0
78,'1',1,1,1,19.061,6.338,0.0,0.0,0.0,0.0,1,1,0
79,'1',1,1,1,13.542,5.83,0.0,0.0,0.0,0.0,1,1,0
80,'1',1,1,1,31.962,9.129,0.0,0.0,0.0,0.0,1,1,0
81,'1',1,1,1,21.571,5.052,0.0,0.0,0.0,0.0,1,1,0
83,'1',1,1,1,20.046,3.877,0.0,0.0,0.0,0.0,1,1,0
87,'1',1,1,1,27.828,9.94,0.0,0.0,0.0,0.0,1,1,0
89,'1',1,1,1,35.43,5.712,0.0,0.0,0.0,0.0,1,1,0
91,'1',1,1,1,20.07,2.574,0.0,0.0,0.0,0.0,1,1,0
93,'1',1,1,1,15.576,7.41,0.0,0.0,0.0,0.0,1,1,0
95,'1',1,1,1,15.576,0.732,0.0,0.0,0.0,0.0,1,1,0
97,'1',1,1,1,20.337,7.645,0.0,0.0,0.0,0.0,1,1,0
98,'1',1,1,1,2.862,0.45,0.0,0.0,0.0,0.0,1,1,0
99,'1',1,1,1,4.474,0.852,0.0,0.0,0.0,0.0,1,1,0
100,'1',1,1,1,4.372,1.608,0.0,0.0,0.0,0.0,1,1,0
102,'1',1,1,1,4.766,1.127,0.0,0.0,0.0,0.0,1,1,0
103,'1',1,1,1,3.774,1.518,0.0,0.0,0.0,0.0,1,1,0
104,'1',1,1,1,12.584,2.722,0.0,0.0,0.0,0.0,1,1,0
105,'1',1,1,1,3.12,1.563,0.0,0.0,0.0,0.0,1,1,0
106,'1',1,1,1,5.709,1.197,0.0,0.0,0.0,0.0,1,1,0
107,'1',1,1,1,3.911,0.472,0.0,0.0,0.0,0.0,1,1,0
108,'1',1,1,1,5.454,0.372,0.0,0.0,0.0,0.0,1,1,0
109,'1',1,1,1,4.194,1.782,0.0,0.0,0.0,0.0,1,1,0
111,'1',1,1,1,10.542,0.768,0.0,0.0,0.0,0.0,1,1,0
113,'1',1,1,1,18.025,5.755,0.0,0.0,0.0,0.0,1,1,0
116,'1',1,1,1,10.542,3.498,0.0,0.0,0.0,0.0,1,1,0
117,'1',1,1,1,13.309,3.689,0.0,0.0,0.0,0.0,1,1,0
119,'1',1,1,1,13.438,4.859,0.0,0.0,0.0,0.0,1,1,0
121,'1',1,1,1,6.14,1.52,0.0,0.0,0.0,0.0,1,1,0
123,'1',1,1,1,4.506,0.587,0.0,0.0,0.0,0.0,1,1,0
124,'1',1,1,1,6.169,2.279,0.0,0.0,0.0,0.0,1,1,0
125,'1',1,1,1,7.44,1.42,0.0,0.0,0.0,0.0,1,1,0
126,'1',1,1,1,3.362,1.061,0.0,0.0,0.0,0.0,1,1,0
127,'1',1,1,1,8.03,1.336,0.0,0.0,0.0,0.0,1,1,0
128,'1',1,1,1,13.871,8.164,0.0,0.0,0.0,0.0,1,1,0
129,'1',1,1,1,13.97,1.335,0.0,0.0,0.0,0.0,1,1,0
131,'1',1,1,1,12.308,4.709,0.0,0.0,0.0,0.0,1,1,0
132,'1',1,1,1,25.02,3.31,0.0,0.0,0.0,0.0,1,1,0
133,'1',1,1,1,22.518,8.703,0.0,0.0,0.0,0.0,1,1,0
135,'1',1,1,1,37.53,8.94,0.0,0.0,0.0,0.0,1,1,0
137,'1',1,1,1,15.012,2.424,0.0,0.0,0.0,0.0,1,1,0
138,'1',1,1,1,24.624,4.675,0.0,0.0,0.0,0.0,1,1,0
140,'1',1,1,1,33.354,2.238,0.0,0.0,0.0,0.0,1,1,0
142,'1',1,1,1,13.64,3.141,0.0,0.0,0.0,0.0,1,1,0
144,'1',1,1,1,25.023,8.41,0.0,0.0,0.0,0.0,1,1,0
145,'1',1,1,1,9.384,2.57,0.0,0.0,0.0,0.0,1,1,0
146,'1',1,1,1,18.591,3.423,0.0,0.0,0.0,0.0,1,1,0
147,'1',1,1,1,15.555,2.641,0.0,0.0,0.0,0.0,1,1,0
148,'1',1,1,1,9.222,2.748,0.0,0.0,0.0,0.0,1,1,0
150,'1',1,1,1,11.22,1.919,0.0,0.0,0.0,0.0,1,1,0
151,'1',1,1,1,7.505,5.721,0.0,0.0,0.0,0.0,1,1,0
152,'1',1,1,1,8.28,0.175,0.0,0.0,0.0,0.0,1,1,0
153,'1',1,1,1,14.143,2.28,0.0,0.0,0.0,0.0,1,1,0
154,'1',1,1,1,20.188,6.356,0.0,0.0,0.0,0.0,1,1,0
155,'1',1,1,1,13.803,3.5,0.0,0.0,0.0,0.0,1,1,0
157,'1',1,1,1,9.108,2.37,0.0,0.0,0.0,0.0,1,1,0
158,'1',1,1,1,11.415,4.231,0.0,0.0,0.0,0.0,1,1,0
159,'1',1,1,1,16.612,2.814,0.0,0.0,0.0,0.0,1,1,0
160,'1',1,1,1,6.942,0.99,0.0,0.0,0.0,0.0,1,1,0
161,'1',1,1,1,6.282,2.238,0.0,0.0,0.0,0.0,1,1,0
163,'1',1,1,1,11.198,3.832,0.0,0.0,0.0,0.0,1,1,0
164,'1',1,1,1,41.372,16.946,0.0,0.0,0.0,0.0,1,1,0
166,'1',1,1,1,28.15,16.802,0.0,0.0,0.0,0.0,1,1,0
167,'1',1,1,1,21.338,1.884,0.0,0.0,0.0,0.0,1,1,0
170,'1',1,1,1,27.732,5.311,0.0,0.0,0.0,0.0,1,1,0
171,'1',1,1,1,46.22,20.462,0.0,0.0,0.0,0.0,1,1,0
172,'1',1,1,1,16.607,2.763,0.0,0.0,0.0,0.0,1,1,0
174,'1',1,1,1,15.073,0.731,0.0,0.0,0.0,0.0,1,1,0
175,'1',1,1,1,12.27,8.964,0.0,0.0,0.0,0.0,1,1,0
176,'1',1,1,1,20.267,5.531,0.0,0.0,0.0,0.0,1,1,0
177,'1',1,1,1,4.09,2.352,0.0,0.0,0.0,0.0,1,1,0
179,'1',1,1,1,6.976,1.406,0.0,0.0,0.0,0.0,1,1,0
180,'1',1,1,1,5.29,1.61,0.0,0.0,0.0,0.0,1,1,0
182,'1',1,1,1,6.828,0.684,0.0,0.0,0.0,0.0,1,1,0
183,'1',1,1,1,6.051,1.541,0.0,0.0,0.0,0.0,1,1,0
185,'1',1,1,1,20.01,1.83,0.0,0.0,0.0,0.0,1,1,0
187,'1',1,1,1,8.283,1.237,0.0,0.0,0.0,0.0,1,1,0
190,'1',1,1,1,7.462,1.115,0.0,0.0,0.0,0.0,1,1,0
191,'1',1,1,1,4.134,1.009,0.0,0.0,0.0,0.0,1,1,0
192,'1',1,1,1,2.539,0.479,0.0,0.0,0.0,0.0,1,1,0
193,'1',1,1,1,12.288,1.71,0.0,0.0,0.0,0.0,1,1,0
194,'1',1,1,1,16.728,13.012,0.0,0.0,0.0,0.0,1,1,0
195,'1',1,1,1,17.71,6.33,0.0,0.0,0.0,0.0,1,1,0
196,'1',1,1,1,18.432,1.53,0.0,0.0,0.0,0.0,1,1,0
199,'1',1,1,1,16.044,1.848,0.0,0.0,0.0,0.0,1,1,0
202,'1',1,1,1,29.126,12.166,0.0,0.0,0.0,0.0,1,1,0
203,'1',1,1,1,20.476,4.625,0.0,0.0,0.0,0.0,1,1,0
205,'1',1,1,1,24.621,4.743,0.0,0.0,0.0,0.0,1,1,0
207,'1',1,1,1,9.055,2.967,0.0,0.0,0.0,0.0,1,1,0
209,'1',1,1,1,9.976,3.012,0.0,0.0,0.0,0.0,1,1,0
210,'1',1,1,1,7.709,3.338,0.0,0.0,0.0,0.0,1,1,0
212,'1',1,1,1,19.579,4.39,0.0,0.0,0.0,0.0,1,1,0
214,'1',1,1,1,12.393,2.869,0.0,0.0,0.0,0.0,1,1,0
217,'1',1,1,1,12.828,2.097,0.0,0.0,0.0,0.0,1,1,0
220,'1',1,1,1,8.812,0.587,0.0,0.0,0.0,0.0,1,1,0
221,'1',1,1,1,4.29,1.403,0.0,0.0,0.0,0.0,1,1,0
222,'1',1,1,1,2.862,1.83,0.0,0.0,0.0,0.0,1,1,0
223,'1',1,1,1,2.663,0.553,0.0,0.0,0.0,0.0,1,1,0
224,'1',1,1,1,8.94,2.715,0.0,0.0,0.0,0.0,1,1,0
225,'1',1,1,1,5.771,2.537,0.0,0.0,0.0,0.0,1,1,0
226,'1',1,1,1,2.796,0.636,0.0,0.0,0.0,0.0,1,1,0
227,'1',1,1,1,4.699,1.265,0.0,0.0,0.0,0.0,1,1,0
231,'1',1,1,1,8.346,1.935,0.0,0.0,0.0,0.0,1,1,0
232,'1',1,1,1,24.688,10.813,0.0,0.0,0.0,0.0,1,1,0
233,'1',1,1,1,19.008,4.644,0.0,0.0,0.0,0.0,1,1,0
236,'1',1,1,1,17.167,1.211,0.0,0.0,0.0,0.0,1,1,0
237,'1',1,1,1,20.643,7.272,0.0,0.0,0.0,0.0,1,1,0
240,'1',1,1,1,40.493,11.507,0.0,0.0,0.0,0.0,1,1,0
241,'1',1,1,1,21.415,3.46,0.0,0.0,0.0,0.0,1,1,0
242,'1',1,1,1,14.556,8.268,0.0,0.0,0.0,0.0,1,1,0
243,'1',1,1,1,28.388,8.542,0.0,0.0,0.0,0.0,1,1,0
244,'1',1,1,1,14.496,4.2,0.0,0.0,0.0,0.0,1,1,0
245,'1',1,1,1,24.16,4.71,0.0,0.0,0.0,0.0,1,1,0
246,'1',1,1,1,21.744,3.285,0.0,0.0,0.0,0.0,1,1,0
247,'1',1,1,1,25.401,6.813,0.0,0.0,0.0,0.0,1,1,0
249,'1',1,1,1,14.496,1.47,0.0,0.0,0.0,0.0,1,1,0
250,'1',1,1,1,13.082,0.943,0.0,0.0,0.0,0.0,1,1,0
251,'1',1,1,1,10.946,2.891,0.0,0.0,0.0,0.0,1,1,0
252,'1',1,1,1,22.053,7.43,0.0,0.0,0.0,0.0,1,1,0
253,'1',1,1,1,8.004,2.941,0.0,0.0,0.0,0.0,1,1,0
255,'1',1,1,1,24.96,6.427,0.0,0.0,0.0,0.0,1,1,0
256,'1',1,1,1,31.252,11.955,0.0,0.0,0.0,0.0,1,1,0
258,'1',1,1,1,36.421,14.536,0.0,0.0,0.0,0.0,1,1,0
260,'1',1,1,1,19.003,3.984,0.0,0.0,0.0,0.0,1,1,0
261,'1',1,1,1,36.865,1.992,0.0,0.0,0.0,0.0,1,1,0
262,'1',1,1,1,22.98,8.308,0.0,0.0,0.0,0.0,1,1,0
263,'1',1,1,1,22.98,4.654,0.0,0.0,0.0,0.0,1,1,0
264,'1',1,1,1,15.318,2.412,0.0,0.0,0.0,0.0,1,1,0
267,'1',1,1,1,38.261,8.333,0.0,0.0,0.0,0.0,1,1,0
270,'1',1,1,1,24.372,5.625,0.0,0.0,0.0,0.0,1,1,0
272,'1',1,1,1,25.789,9.352,0.0,0.0,0.0,0.0,1,1,0
275,'1',1,1,1,19.779,3.36,0.0,0.0,0.0,0.0,1,1,0
276,'1',1,1,1,27.415,2.278,0.0,0.0,0.0,0.0,1,1,0
278,'1',1,1,1,20.08,3.048,0.0,0.0,0.0,0.0,1,1,0
279,'1',1,1,1,3.438,0.657,0.0,0.0,0.0,0.0,1,1,0
280,'1',1,1,1,4.8,0.419,0.0,0.0,0.0,0.0,1,1,0
281,'1',1,1,1,7.178,2.189,0.0,0.0,0.0,0.0,1,1,0
283,'1',1,1,1,11.285,2.246,0.0,0.0,0.0,0.0,1,1,0
284,'1',1,1,1,5.034,1.248,0.0,0.0,0.0,0.0,1,1,0
286,'1',1,1,1,2.91,0.715,0.0,0.0,0.0,0.0,1,1,0
287,'1',1,1,1,1.416,0.396,0.0,0.0,0.0,0.0,1,1,0
288,'1',1,1,1,12.946,2.954,0.0,0.0,0.0,0.0,1,1,0
289,'1',1,1,1,8.778,2.167,0.0,0.0,0.0,0.0,1,1,0
292,'1',1,1,1,35.969,5.211,0.0,0.0,0.0,0.0,1,1,0
293,'1',1,1,1,1.092,0.318,0.0,0.0,0.0,0.0,1,1,0
294,'1',1,1,1,5.037,0.731,0.0,0.0,0.0,0.0,1,1,0
295,'1',1,1,1,5.61,2.655,0.0,0.0,0.0,0.0,1,1,0
296,'1',1,1,1,6.22,0.9,0.0,0.0,0.0,0.0,1,1,0
298,'1',1,1,1,3.732,0.216,0.0,0.0,0.0,0.0,1,1,0
299,'1',1,1,1,4.043,0.624,0.0,0.0,0.0,0.0,1,1,0
...
0 / END OF LOAD DATA BEGIN FIXED SHUNT DATA
0 / END OF FIXED SHUNT DATA BEGIN GENERATOR DATA
1740,'1',78.78,8.885,52.66,-31.596,1.04,0,124.16,0.0,1.0,0.0,0.0,1.0,1,100.0,103.47,26.81,1,1.0,0,1.0,0,1.0,0,1.0,0,1.0
1741,'1',78.78,8.399,52.66,-31.596,1.04,0,124.16,0.0,1.0,0.0,0.0,1.0,1,100.0,103.47,50.92,1,1.0,0,1.0,0,1.0,0,1.0,0,1.0
1742,'1',78.78,7.818,52.66,-31.596,1.04,0,124.16,0.0,1.0,0.0,0.0,1.0,1,100.0,103.47,14.34,1,1.0,0,1.0,0,1.0,0,1.0,0,1.0
1743,'1',78.78,10.456,52.66,-31.596,1.04,0,124.16,0.0,1.0,0.0,0.0,1.0,1,100.0,103.47,18.78,1,1.0,0,1.0,0,1.0,0,1.0,0,1.0
1744,'1',78.78,7.902,52.66,-31.596,1.04,0,124.16,0.0,1.0,0.0,0.0,1.0,1,100.0,103.47,43.26,1,1.0,0,1.0,0,1.0,0,1.0,0,1.0
1745,'1',78.78,10.442,52.66,-31.596,1.04,0,124.16,0.0,1.0,0.0,0.0,1.0,1,100.0,103.47,28.95,1,1.0,0,1.0,0,1.0,0,1.0,0,1.0
1747,'1',20.014,-6.434,6.434,-6.434,1.04,0,39.96,0.0,1.0,0.0,0.0,1.0,1,100.0,21.447,0.0,1,1.0,0,1.0,0,1.0,0,1.0,0,1.0
1748,'1',25.354,3.984,9.07,-9.07,1.04,0,39.96,0.0,1.0,0.0,0.0,1.0,1,100.0,30.234,0.0,1,1.0,0,1.0,0,1.0,0,1.0,0,1.0
1748,'2',22.493,3.984,7.178,-7.178,1.04,0,39.96,0.0,1.0,0.0,0.0,1.0,1,100.0,23.926,0.0,1,1.0,0,1.0,0,1.0,0,1.0,0,1.0
1750,'1',21.928,8.64,8.64,-8.64,1.04,0,34.56,0.0,1.0,0.0,0.0,1.0,1,100.0,28.8,0.0,1,1.0,0,1.0,0,1.0,0,1.0,0,1.0
1751,'1',21.928,8.64,8.64,-8.64,1.04,0,34.56,0.0,1.0,0.0,0.0,1.0,1,100.0,28.8,0.0,1,1.0,0,1.0,0,1.0,0,1.0,0,1.0
1757,'1',256.94,-2.539,605.8,-363.48,1.04,1754,1560.0,0.0,1.0,0.0,0.0,1.0,1,100.0,1300.0,256.94,1,1.0,0,1.0,0,1.0,0,1.0,0,1.0
1758,'1',527.04,19.181,605.8,-363.48,1.04,1754,1560.0,0.0,1.0,0.0,0.0,1.0,1,100.0,1300.0,527.04,1,1.0,0,1.0,0,1.0,0,1.0,0,1.0
1761,'1',12.03,2.859,4.251,-4.251,1.04,0,18.96,0.0,1.0,0.0,0.0,1.0,1,100.0,14.17,0.0,1,1.0,0,1.0,0,1.0,0,1.0,0,1.0
1764,'1',19.781,6.368,6.368,-6.368,1.04,0,31.17,0.0,1.0,0.0,0.0,1.0,1,100.0,21.227,0.0,1,1.0,0,1.0,0,1.0,0,1.0,0,1.0
1764,'2',19.781,7.794,7.794,-7.794,1.04,0,31.17,0.0,1.0,0.0,0.0,1.0,1,100.0,25.98,0.0,1,1.0,0,1.0,0,1.0,0,1.0,0,1.0
1764,'3',19.781,6.346,6.346,-6.346,1.04,0,31.17,0.0,1.0,0.0,0.0,1.0,1,100.0,21.152,0.0,1,1.0,0,1.0,0,1.0,0,1.0,0,1.0
1764,'4',19.781,7.794,7.794,-7.794,1.04,0,31.17,0.0,1.0,0.0,0.0,1.0,1,100.0,25.98,0.0,1,1.0,0,1.0,0,1.0,0,1.0,0,1.0
1768,'1',46.832,3.125,75.0,-75.0,1.04,0,42.36,0.0,1.0,0.0,0.0,1.0,1,100.0,250.0,0.0,1,1.0,0,1.0,0,1.0,0,1.0,0,1.0
1768,'2',241.577,3.125,74.688,-74.688,1.04,0,42.36,0.0,1.0,0.0,0.0,1.0,1,100.0,248.959,0.0,1,1.0,0,1.0,0,1.0,0,1.0,0,1.0
1768,'3',26.555,3.125,75.0,-75.0,1.04,0,42.36,0.0,1.0,0.0,0.0,1.0,1,100.0,250.0,0.0,1,1.0,0,1.0,0,1.0,0,1.0,0,1.0
1770,'1',3.807,2.55,2.55,-1.53,1.04,0,6.0,0.0,1.0,0.0,0.0,1.0,1,100.0,5.0,0.52,1,1.0,0,1.0,0,1.0,0,1.0,0,1.0
1774,'1',2.794,0.781,1.71,-1.026,1.04,0,4.4,0.0,1.0,0.0,0.0,1.0,1,100.0,3.67,0.96,1,1.0,0,1.0,0,1.0,0,1.0,0,1.0
1774,'2',2.794,0.781,1.71,-1.026,1.04,0,4.4,0.0,1.0,0.0,0.0,1.0,1,100.0,3.67,1.63,1,1.0,0,1.0,0,1.0,0,1.0,0,1.0
1775,'1',2.794,0.733,1.71,-1.026,1.04,0,4.4,0.0,1.0,0.0,0.0,1.0,1,100.0,3.67,1.42,1,1.0,0,1.0,0,1.0,0,1.0,0,1.0
1775,'2',2.794,0.733,1.71,-1.026,1.04,0,4.4,0.0,1.0,0.0,0.0,1.0,1,100.0,3.67,0.73,1,1.0,0,1.0,0,1.0,0,1.0,0,1.0
1776,'1',2.794,0.527,1.71,-1.026,1.04,0,4.4,0.0,1.0,0.0,0.0,1.0,1,100.0,3.67,0.5,1,1.0,0,1.0,0,1.0,0,1.0,0,1.0
1776,'2',2.794,0.527,1.71,-1.026,1.04,0,4.4,0.0,1.0,0.0,0.0,1.0,1,100.0,3.67,1.21,1,1.0,0,1.0,0,1.0,0,1.0,0,1.0
1780,'1',2.475,0.451,0.791,-0.791,1.04,0,4.56,0.0,1.0,0.0,0.0,1.0,1,100.0,2.638,0.0,1,1.0,0,1.0,0,1.0,0,1.0,0,1.0
1781,'1',2.893,0.247,1.135,-1.135,1.04,0,4.56,0.0,1.0,0.0,0.0,1.0,1,100.0,3.782,0.0,1,1.0,0,1.0,0,1.0,0,1.0,0,1.0
1781,'2',2.604,0.247,0.83,-0.83,1.04,0,4.56,0.0,1.0,0.0,0.0,1.0,1,100.0,2.767,0.0,1,1.0,0,1.0,0,1.0,0,1.0,0,1.0
1782,'1',2.882,0.914,0.914,-0.914,1.04,0,4.56,0.0,1.0,0.0,0.0,1.0,1,100.0,3.045,0.0,1,1.0,0,1.0,0,1.0,0,1.0,0,1.0
1782,'2',2.893,1.14,1.14,-1.14,1.04,0,4.56,0.0,1.0,0.0,0.0,1.0,1,100.0,3.8,0.0,1,1.0,0,1.0,0,1.0,0,1.0,0,1.0
1786,'1',251.257,-6.618,153.78,-92.268,1.03,1784,396.0,0.0,1.0,0.0,0.0,1.0,1,100.0,330.0,49.13,1,1.0,0,1.0,0,1.0,0,1.0,0,1.0
1787,'1',251.257,-6.618,153.78,-92.268,1.03,1784,396.0,0.0,1.0,0.0,0.0,1.0,1,100.0,330.0,96.28,1,1.0,0,1.0,0,1.0,0,1.0,0,1.0
1788,'1',243.004,-6.618,153.78,-92.268,1.03,1784,396.0,0.0,1.0,0.0,0.0,1.0,1,100.0,330.0,91.44,1,1.0,0,1.0,0,1.0,0,1.0,0,1.0
1790,'1',15.423,5.01,5.01,-5.01,1.04,0,35.64,0.0,1.0,0.0,0.0,1.0,1,100.0,16.701,0.0,1,1.0,0,1.0,0,1.0,0,1.0,0,1.0
1790,'2',22.613,8.91,8.91,-8.91,1.04,0,35.64,0.0,1.0,0.0,0.0,1.0,1,100.0,29.7,0.0,1,1.0,0,1.0,0,1.0,0,1.0,0,1.0
1793,'1',51.786,8.141,56.26,-33.756,1.04,0,132.64,0.0,1.0,0.0,0.0,1.0,1,100.0,110.53,45.79,1,1.0,0,1.0,0,1.0,0,1.0,0,1.0
1794,'1',84.156,7.676,56.26,-33.756,1.04,0,132.64,0.0,1.0,0.0,0.0,1.0,1,100.0,110.53,47.9,1,1.0,0,1.0,0,1.0,0,1.0,0,1.0
1795,'1',45.564,9.801,56.26,-33.756,1.04,0,132.64,0.0,1.0,0.0,0.0,1.0,1,100.0,110.53,14.2,1,1.0,0,1.0,0,1.0,0,1.0,0,1.0
1796,'1',62.806,5.941,56.26,-33.756,1.04,0,132.64,0.0,1.0,0.0,0.0,1.0,1,100.0,110.53,25.13,1,1.0,0,1.0,0,1.0,0,1.0,0,1.0
1797,'1',84.156,6.678,56.26,-33.756,1.04,0,132.64,0.0,1.0,0.0,0.0,1.0,1,100.0,110.53,33.77,1,1.0,0,1.0,0,1.0,0,1.0,0,1.0
1798,'1',84.156,11.399,56.26,-33.756,1.04,0,132.64,0.0,1.0,0.0,0.0,1.0,1,100.0,110.53,27.65,1,1.0,0,1.0,0,1.0,0,1.0,0,1.0
1804,'1',50.023,10.067,17.437,-17.437,1.04,0,78.84,0.0,1.0,0.0,0.0,1.0,1,100.0,58.124,0.0,1,1.0,0,1.0,0,1.0,0,1.0,0,1.0
1805,'1',50.023,5.215,19.71,-19.71,1.04,0,78.84,0.0,1.0,0.0,0.0,1.0,1,100.0,65.7,0.0,1,1.0,0,1.0,0,1.0,0,1.0,0,1.0
1809,'1',87.559,-3.569,58.53,-35.118,1.04,0,138.0,0.0,1.0,0.0,0.0,1.0,1,100.0,115.0,25.26,1,1.0,0,1.0,0,1.0,0,1.0,0,1.0
1810,'1',87.559,-2.549,58.53,-35.118,1.04,0,138.0,0.0,1.0,0.0,0.0,1.0,1,100.0,115.0,54.87,1,1.0,0,1.0,0,1.0,0,1.0,0,1.0
1811,'1',87.559,-7.849,58.53,-40.971,1.041,1806,138.0,0.0,1.0,0.0,0.0,1.0,1,100.0,115.0,27.73,1,1.0,0,1.0,0,1.0,0,1.0,0,1.0
1812,'1',87.559,-2.345,58.53,-35.118,1.04,0,138.0,0.0,1.0,0.0,0.0,1.0,1,100.0,115.0,31.11,1,1.0,0,1.0,0,1.0,0,1.0,0,1.0
1818,'1',487.226,39.27,467.32,-280.392,1.04,1814,1523.88,0.0,1.0,0.0,0.0,1.0,1,100.0,1269.9,409.47,1,1.0,0,1.0,0,1.0,0,1.0,0,1.0
1820,'1',39.744,4.07,13.268,-13.268,1.04,0,62.64,0.0,1.0,0.0,0.0,1.0,1,100.0,44.226,0.0,1,1.0,0,1.0,0,1.0,0,1.0,0,1.0
1820,'2',35.691,4.07,11.381,-11.381,1.04,0,62.64,0.0,1.0,0.0,0.0,1.0,1,100.0,37.937,0.0,1,1.0,0,1.0,0,1.0,0,1.0,0,1.0
1820,'3',39.744,4.07,15.66,-15.66,1.04,0,62.64,0.0,1.0,0.0,0.0,1.0,1,100.0,52.2,0.0,1,1.0,0,1.0,0,1.0,0,1.0,0,1.0
1824,'1',15.797,5.088,5.088,-5.088,1.04,0,32.4,0.0,1.0,0.0,0.0,1.0,1,100.0,16.959,0.0,1,1.0,0,1.0,0,1.0,0,1.0,1,1.0
1826,'1',12.829,5.033,5.033,-5.033,1.04,0,20.22,0.0,1.0,0.0,0.0,1.0,1,100.0,16.778,0.0,1,1.0,0,1.0,0,1.0,0,1.0,0,1.0
1826,'2',12.829,4.783,4.783,-4.783,1.04,0,20.22,0.0,1.0,0.0,0.0,1.0,1,100.0,15.945,0.0,1,1.0,0,1.0,0,1.0,0,1.0,0,1.0
1829,'1',26.588,10.476,10.476,-10.476,1.04,0,41.904,0.0,1.0,0.0,0.0,1.0,1,100.0,34.92,0.0,1,1.0,0,1.0,0,1.0,0,1.0,0,1.0
1829,'2',26.588,10.476,10.476,-10.476,1.04,0,41.904,0.0,1.0,0.0,0.0,1.0,1,100.0,34.92,0.0,1,1.0,0,1.0,0,1.0,0,1.0,0,1.0
1830,'1',26.588,-1.498,9.676,-9.676,1.04,0,41.904,0.0,1.0,0.0,0.0,1.0,1,100.0,32.252,0.0,1,1.0,0,1.0,0,1.0,0,1.0,0,1.0
1830,'2',26.588,-1.498,10.476,-10.476,1.04,0,41.904,0.0,1.0,0.0,0.0,1.0,1,100.0,34.92,0.0,1,1.0,0,1.0,0,1.0,0,1.0,0,1.0
1830,'3',20.903,-1.498,6.722,-6.722,1.04,0,41.904,0.0,1.0,0.0,0.0,1.0,1,100.0,22.406,0.0,1,1.0,0,1.0,0,1.0,0,1.0,0,1.0
1832,'1',28.704,4.6,11.31,-11.31,1.04,0,45.24,0.0,1.0,0.0,0.0,1.0,1,100.0,37.7,0.0,1,1.0,0,1.0,0,1.0,0,1.0,0,1.0
1832,'2',28.704,4.6,10.57,-10.57,1.04,0,45.24,0.0,1.0,0.0,0.0,1.0,1,100.0,35.233,0.0,1,1.0,0,1.0,0,1.0,0,1.0,0,1.0
1832,'3',28.704,4.6,11.167,-11.167,1.04,0,45.24,0.0,1.0,0.0,0.0,1.0,1,100.0,37.222,0.0,1,1.0,0,1.0,0,1.0,0,1.0,0,1.0
1832,'4',28.704,4.6,11.31,-11.31,1.04,0,45.24,0.0,1.0,0.0,0.0,1.0,1,100.0,37.7,0.0,1,1.0,0,1.0,0,1.0,0,1.0,0,1.0
1838,'1',152.58,0.127,126.86,-76.116,1.04,0,299.07,0.0,1.0,0.0,0.0,1.0,1,100.0,249.22,100.54,1,1.0,0,1.0,0,1.0,0,1.0,0,1.0
1839,'1',189.75,-5.278,126.86,-76.116,1.04,1835,299.07,0.0,1.0,0.0,0.0,1.0,1,100.0,249.22,26.43,1,1.0,0,1.0,0,1.0,0,1.0,0,1.0
1840,'1',189.75,1.351,126.86,-76.116,1.04,0,299.07,0.0,1.0,0.0,0.0,1.0,1,100.0,249.22,109.59,1,1.0,0,1.0,0,1.0,0,1.0,0,1.0
1841,'1',189.75,-0.908,126.86,-76.116,1.04,0,299.07,0.0,1.0,0.0,0.0,1.0,1,100.0,249.22,106.81,1,1.0,0,1.0,0,1.0,0,1.0,0,1.0
1845,'1',144.107,1.896,96.34,-57.804,1.04,0,227.12,0.0,1.0,0.0,0.0,1.0,1,100.0,189.27,24.72,1,1.0,0,1.0,0,1.0,0,1.0,0,1.0
1846,'1',144.107,1.635,96.34,-57.804,1.04,0,227.12,0.0,1.0,0.0,0.0,1.0,1,100.0,189.27,33.63,1,1.0,0,1.0,0,1.0,0,1.0,0,1.0
1847,'1',144.107,2.423,96.34,-57.804,1.04,0,227.12,0.0,1.0,0.0,0.0,1.0,1,100.0,189.27,40.85,1,1.0,0,1.0,0,1.0,0,1.0,0,1.0
1851,'1',180.958,-5.101,120.97,-72.582,1.04,0,285.2,0.0,1.0,0.0,0.0,1.0,1,100.0,237.67,82.61,1,1.0,0,1.0,0,1.0,0,1.0,0,1.0
1852,'1',180.958,-2.392,120.97,-72.582,1.041,1850,285.2,0.0,1.0,0.0,0.0,1.0,1,100.0,237.67,85.08,1,1.0,0,1.0,0,1.0,0,1.0,0,1.0
1853,'1',180.958,-2.392,120.97,-72.582,1.041,1850,285.2,0.0,1.0,0.0,0.0,1.0,1,100.0,237.67,27.85,1,1.0,0,1.0,0,1.0,0,1.0,0,1.0
1854,'1',180.958,-2.392,120.97,-72.582,1.041,1850,285.2,0.0,1.0,0.0,0.0,1.0,1,100.0,237.67,109.63,1,1.0,0,1.0,0,1.0,0,1.0,0,1.0
1855,'1',180.958,-2.897,120.97,-72.582,1.04,0,285.2,0.0,1.0,0.0,0.0,1.0,1,100.0,237.67,83.36,1,1.0,0,1.0,0,1.0,0,1.0,0,1.0
1856,'1',180.958,-2.392,120.97,-72.582,1.041,1850,285.2,0.0,1.0,0.0,0.0,1.0,1,100.0,237.67,55.32,1,1.0,0,1.0,0,1.0,0,1.0,0,1.0
1858,'1',13.705,2.588,9.16,-5.496,1.04,0,21.6,0.0,1.0,0.0,0.0,1.0,1,100.0,18.0,8.14,1,1.0,0,1.0,0,1.0,0,1.0,0,1.0
1864,'1',129.534,8.229,86.6,-60.62,1.04,1861,204.16,0.0,1.0,0.0,0.0,1.0,1,100.0,170.13,75.2,1,1.0,0,1.0,0,1.0,0,1.0,0,1.0
1865,'1',129.534,8.229,86.6,-60.62,1.04,1861,204.16,0.0,1.0,0.0,0.0,1.0,1,100.0,170.13,24.19,1,1.0,0,1.0,0,1.0,0,1.0,0,1.0
1866,'1',129.534,0.742,86.6,-51.96,1.04,0,204.16,0.0,1.0,0.0,0.0,1.0,1,100.0,170.13,78.63,1,1.0,0,1.0,0,1.0,0,1.0,0,1.0
1867,'1',129.534,8.229,86.6,-60.62,1.04,1861,204.16,0.0,1.0,0.0,0.0,1.0,1,100.0,170.13,56.6,1,1.0,0,1.0,0,1.0,0,1.0,0,1.0
1868,'1',129.534,8.229,86.6,-51.96,1.04,1861,204.16,0.0,1.0,0.0,0.0,1.0,1,100.0,170.13,43.7,1,1.0,0,1.0,0,1.0,0,1.0,0,1.0
1869,'1',129.534,-0.7,86.6,-51.96,1.04,0,204.16,0.0,1.0,0.0,0.0,1.0,1,100.0,170.13,65.0,1,1.0,0,1.0,0,1.0,0,1.0,0,1.0
1871,'1',8.756,-1.049,3.45,-3.45,1.04,0,13.8,0.0,1.0,0.0,0.0,1.0,1,100.0,11.5,0.0,1,1.0,0,1.0,0,1.0,0,1.0,0,1.0
1871,'2',8.756,-1.049,2.991,-2.991,1.04,0,13.8,0.0,1.0,0.0,0.0,1.0,1,100.0,9.968,0.0,1,1.0,0,1.0,0,1.0,0,1.0,0,1.0
1873,'1',12.639,4.295,4.295,-4.295,1.04,0,19.92,0.0,1.0,0.0,0.0,1.0,1,100.0,14.316,0.0,1,1.0,0,1.0,0,1.0,0,1.0,0,1.0
1873,'2',12.639,4.496,4.496,-4.496,1.04,0,19.92,0.0,1.0,0.0,0.0,1.0,1,100.0,14.985,0.0,1,1.0,0,1.0,0,1.0,0,1.0,0,1.0
1874,'1',12.639,4.98,4.98,-4.98,1.04,0,19.92,0.0,1.0,0.0,0.0,1.0,1,100.0,16.6,0.0,1,1.0,0,1.0,0,1.0,0,1.0,0,1.0
1876,'1',21.928,7.113,7.113,-7.113,1.04,0,34.56,0.0,1.0,0.0,0.0,1.0,1,100.0,23.71,0.0,1,1.0,0,1.0,0,1.0,0,1.0,0,1.0
1880,'1',14.748,2.151,4.725,-4.725,1.04,0,5.04,0.0,1.0,0.0,0.0,1.0,1,100.0,15.75,0.0,1,1.0,0,1.0,0,1.0,0,1.0,0,1.0
1885,'1',326.177,11.306,128.52,-128.52,1.038,1882,514.08,0.0,1.0,0.0,0.0,1.0,1,100.0,428.4,0.0,1,1.0,0,1.0,0,1.0,0,1.0,0,1.0
1886,'1',303.736,11.306,96.651,-96.651,1.038,1882,514.08,0.0,1.0,0.0,0.0,1.0,1,100.0,322.171,0.0,1,1.0,0,1.0,0,1.0,0,1.0,0,1.0
1887,'1',326.177,11.306,116.996,-116.996,1.038,1882,514.08,0.0,1.0,0.0,0.0,1.0,1,100.0,389.987,0.0,1,1.0,0,1.0,0,1.0,0,1.0,0,1.0
1888,'1',326.177,11.306,113.143,-113.143,1.038,1882,514.08,0.0,1.0,0.0,0.0,1.0,1,100.0,377.143,0.0,1,1.0,0,1.0,0,1.0,0,1.0,0,1.0
1890,'1',33.181,-10.535,10.535,-10.535,1.04,0,54.0,0.0,1.0,0.0,0.0,1.0,1,100.0,35.118,0.0,1,1.0,0,1.0,0,1.0,0,1.0,0,1.0
1891,'1',34.262,8.046,12.005,-12.005,1.04,0,54.0,0.0,1.0,0.0,0.0,1.0,1,100.0,40.015,0.0,1,1.0,0,1.0,0,1.0,0,1.0,0,1.0
1891,'2',34.262,8.046,12.862,-12.862,1.04,0,54.0,0.0,1.0,0.0,0.0,1.0,1,100.0,42.873,0.0,1,1.0,0,1.0,0,1.0,0,1.0,0,1.0
1893,'1',11.975,3.716,3.716,-3.716,1.04,0,11.52,0.0,1.0,0.0,0.0,1.0,1,100.0,12.388,0.0,1,1.0,0,1.0,0,1.0,0,1.0,0,1.0
1898,'1',135.347,22.373,146.23,-87.738,1.04,1895,376.56,0.0,1.0,0.0,0.0,1.0,1,100.0,313.8,106.65,1,1.0,0,1.0,0,1.0,0,1.0,0,1.0
1899,'1',160.267,22.373,146.23,-87.738,1.04,1895,376.56,0.0,1.0,0.0,0.0,1.0,1,100.0,313.8,156.49,1,1.0,0,1.0,0,1.0,0,1.0,0,1.0
1900,'1',145.582,22.373,146.23,-87.738,1.04,1895,376.56,0.0,1.0,0.0,0.0,1.0,1,100.0,313.8,127.12,1,1.0,0,1.0,0,1.0,0,1.0,0,1.0
1901,'1',124.382,22.373,146.23,-87.738,1.04,1895,376.56,0.0,1.0,0.0,0.0,1.0,1,100.0,313.8,84.72,1,1.0,0,1.0,0,1.0,0,1.0,0,1.0
1904,'1',13.705,3.188,5.4,-5.4,1.04,0,21.6,0.0,1.0,0.0,0.0,1.0,1,100.0,18.0,0.0,1,1.0,0,1.0,0,1.0,0,1.0,0,1.0
1904,'2',13.705,3.188,5.207,-5.207,1.04,0,21.6,0.0,1.0,0.0,0.0,1.0,1,100.0,17.358,0.0,1,1.0,0,1.0,0,1.0,0,1.0,0,1.0
1904,'3',13.535,3.188,4.293,-4.293,1.04,0,21.6,0.0,1.0,0.0,0.0,1.0,1,100.0,14.309,0.0,1,1.0,0,1.0,0,1.0,0,1.0,0,1.0
1906,'1',9.137,3.012,3.012,-3.012,1.04,0,14.4,0.0,1.0,0.0,0.0,1.0,1,100.0,10.04,0.0,1,1.0,0,1.0,0,1.0,0,1.0,0,1.0
1907,'1',9.137,3.214,3.214,-3.214,1.04,0,14.4,0.0,1.0,0.0,0.0,1.0,1,100.0,10.714,0.0,1,1.0,0,1.0,0,1.0,0,1.0,0,1.0
1907,'2',9.137,3.266,3.266,-3.266,1.04,0,14.4,0.0,1.0,0.0,0.0,1.0,1,100.0,10.887,0.0,1,1.0,0,1.0,0,1.0,0,1.0,0,1.0
1910,'1',27.41,10.8,10.8,-10.8,1.04,0,43.2,0.0,1.0,0.0,0.0,1.0,1,100.0,36.0,0.0,1,1.0,0,1.0,0,1.0,0,1.0,0,1.0
1910,'2',27.41,8.782,8.782,-8.782,1.04,0,43.2,0.0,1.0,0.0,0.0,1.0,1,100.0,29.274,0.0,1,1.0,0,1.0,0,1.0,0,1.0,0,1.0
1913,'1',3.426,2.29,2.29,-1.374,1.04,0,5.4,0.0,1.0,0.0,0.0,1.0,1,100.0,4.5,1.94,1,1.0,0,1.0,0,1.0,0,1.0,0,1.0
1916,'1',30.455,0.721,12.0,-12.0,1.04,0,48.0,0.0,1.0,0.0,0.0,1.0,1,100.0,40.0,0.0,1,1.0,0,1.0,0,1.0,0,1.0,0,1.0
1916,'2',30.455,0.721,10.582,-10.582,1.04,0,48.0,0.0,1.0,0.0,0.0,1.0,1,100.0,35.273,0.0,1,1.0,0,1.0,0,1.0,0,1.0,0,1.0
1916,'3',30.455,0.721,12.0,-12.0,1.04,0,48.0,0.0,1.0,0.0,0.0,1.0,1,100.0,40.0,0.0,1,1.0,0,1.0,0,1.0,0,1.0,0,1.0
1916,'4',30.455,0.721,12.0,-12.0,1.04,0,48.0,0.0,1.0,0.0,0.0,1.0,1,100.0,40.0,0.0,1,1.0,0,1.0,0,1.0,0,1.0,0,1.0
1916,'5',30.455,0.721,10.703,-10.703,1.04,0,48.0,0.0,1.0,0.0,0.0,1.0,1,100.0,35.676,0.0,1,1.0,0,1.0,0,1.0,0,1.0,0,1.0
1916,'6',26.196,0.721,8.375,-8.375,1.04,0,48.0,0.0,1.0,0.0,0.0,1.0,1,100.0,27.917,0.0,1,1.0,0,1.0,0,1.0,0,1.0,0,1.0
1922,'1',320.52,-137.88,442.7,-265.62,1.031,1919,1140.0,0.0,1.0,0.0,0.0,1.0,1,100.0,950.0,320.52,1,1.0,0,1.0,0,1.0,0,1.0,0,1.0
1927,'1',29.174,3.086,11.496,-11.496,1.04,0,45.99,0.0,1.0,0.0,0.0,1.0,1,100.0,38.32,0.0,1,1.0,0,1.0,0,1.0,0,1.0,0,1.0
1927,'2',29.174,3.086,11.243,-11.243,1.04,0,45.99,0.0,1.0,0.0,0.0,1.0,1,100.0,37.477,0.0,1,1.0,0,1.0,0,1.0,0,1.0,0,1.0
1928,'1',29.174,5.215,11.348,-11.348,1.04,0,45.99,0.0,1.0,0.0,0.0,1.0,1,100.0,37.828,0.0,1,1.0,0,1.0,0,1.0,0,1.0,0,1.0
1929,'1',29.174,4.505,11.496,-11.496,1.04,0,45.99,0.0,1.0,0.0,0.0,1.0,1,100.0,38.32,0.0,1,1.0,0,1.0,0,1.0,0,1.0,0,1.0
1931,'1',2.018,0.577,0.795,-0.795,1.04,0,3.18,0.0,1.0,0.0,0.0,1.0,1,100.0,2.65,0.0,1,1.0,0,1.0,0,1.0,0,1.0,0,1.0
1931,'2',2.018,0.577,0.795,-0.795,1.04,0,3.18,0.0,1.0,0.0,0.0,1.0,1,100.0,2.65,0.0,1,1.0,0,1.0,0,1.0,0,1.0,0,1.0
1932,'1',2.018,0.558,0.795,-0.795,1.04,0,3.18,0.0,1.0,0.0,0.0,1.0,1,100.0,2.65,0.0,1,1.0,0,1.0,0,1.0,0,1.0,0,1.0
1932,'2',2.018,0.558,0.795,-0.795,1.04,0,3.18,0.0,1.0,0.0,0.0,1.0,1,100.0,2.65,0.0,1,1.0,0,1.0,0,1.0,0,1.0,0,1.0
1937,'1',929.269,52.377,449.14,-269.484,1.036,1934,1464.6,0.0,1.0,0.0,0.0,1.0,1,100.0,1220.5,473.43,1,1.0,0,1.0,0,1.0,0,1.0,0,1.0
1938,'1',929.269,52.377,449.14,-269.484,1.036,1934,1464.6,0.0,1.0,0.0,0.0,1.0,1,100.0,1220.5,379.66,1,1.0,0,1.0,0,1.0,0,1.0,0,1.0
1940,'1',16.706,5.307,5.307,-5.307,1.04,0,27.42,0.0,1.0,0.0,0.0,1.0,1,100.0,17.689,0.0,1,1.0,0,1.0,0,1.0,0,1.0,0,1.0
1941,'1',17.398,5.756,5.756,-5.756,1.04,0,27.42,0.0,1.0,0.0,0.0,1.0,1,100.0,19.187,0.0,1,1.0,0,1.0,0,1.0,0,1.0,0,1.0
1943,'1',1.37,0.84,0.84,-0.504,1.04,0,2.16,0.0,1.0,0.0,0.0,1.0,1,100.0,1.8,0.26,1,1.0,0,1.0,0,1.0,0,1.0,0,1.0
1943,'2',1.37,0.84,0.84,-0.504,1.04,0,2.16,0.0,1.0,0.0,0.0,1.0,1,100.0,1.8,0.87,1,1.0,0,1.0,0,1.0,0,1.0,0,1.0
1946,'1',0.417,0.133,0.133,-0.133,1.04,0,0.72,0.0,1.0,0.0,0.0,1.0,1,100.0,0.443,0.0,1,1.0,0,1.0,0,1.0,0,1.0,1,1.0
1946,'2',0.274,0.09,0.09,-0.09,1.04,0,0.72,0.0,1.0,0.0,0.0,1.0,1,100.0,0.3,0.0,1,1.0,0,1.0,0,1.0,0,1.0,1,1.0
1947,'1',0.356,0.115,0.115,-0.115,1.04,0,0.72,0.0,1.0,0.0,0.0,1.0,1,100.0,0.382,0.0,1,1.0,0,1.0,0,1.0,0,1.0,1,1.0
1952,'1',37.67,10.241,132.03,-79.218,1.037,1949,340.0,0.0,1.0,0.0,0.0,1.0,1,100.0,283.33,37.67,1,1.0,0,1.0,0,1.0,0,1.0,0,1.0
1953,'1',33.18,10.241,132.03,-79.218,1.037,1949,340.0,0.0,1.0,0.0,0.0,1.0,1,100.0,283.33,33.18,1,1.0,0,1.0,0,1.0,0,1.0,0,1.0
1954,'1',75.56,10.241,132.03,-79.218,1.037,1949,340.0,0.0,1.0,0.0,0.0,1.0,1,100.0,283.33,75.56,1,1.0,0,1.0,0,1.0,0,1.0,0,1.0
1955,'1',81.83,10.241,132.03,-79.218,1.037,1949,340.0,0.0,1.0,0.0,0.0,1.0,1,100.0,283.33,81.83,1,1.0,0,1.0,0,1.0,0,1.0,0,1.0
1956,'1',89.23,10.241,132.03,-79.218,1.037,1949,340.0,0.0,1.0,0.0,0.0,1.0,1,100.0,283.33,89.23,1,1.0,0,1.0,0,1.0,0,1.0,0,1.0
1957,'1',34.64,10.241,132.03,-79.218,1.037,1949,340.0,0.0,1.0,0.0,0.0,1.0,1,100.0,283.33,34.64,1,1.0,0,1.0,0,1.0,0,1.0,0,1.0
1960,'1',3.807,2.55,2.55,-1.53,1.04,0,6.0,0.0,1.0,0.0,0.0,1.0,1,100.0,5.0,2.02,1,1.0,0,1.0,0,1.0,0,1.0,0,1.0
1964,'1',25.697,0.659,8.287,-8.287,1.04,0,40.5,0.0,1.0,0.0,0.0,1.0,1,100.0,27.623,0.0,1,1.0,0,1.0,0,1.0,0,1.0,0,1.0
1964,'2',18.398,0.659,5.955,-5.955,1.04,0,40.5,0.0,1.0,0.0,0.0,1.0,1,100.0,19.85,0.0,1,1.0,0,1.0,0,1.0,0,1.0,0,1.0
1965,'1',25.697,0.779,10.125,-10.125,1.04,0,40.5,0.0,1.0,0.0,0.0,1.0,1,100.0,33.75,0.0,1,1.0,0,1.0,0,1.0,0,1.0,0,1.0
1965,'2',25.697,0.779,9.972,-9.972,1.04,0,40.5,0.0,1.0,0.0,0.0,1.0,1,100.0,33.242,0.0,1,1.0,0,1.0,0,1.0,0,1.0,0,1.0
1967,'1',3.959,2.65,2.65,-1.59,1.04,0,6.24,0.0,1.0,0.0,0.0,1.0,1,100.0,5.2,0.68,1,1.0,0,1.0,0,1.0,0,1.0,0,1.0
1967,'2',3.959,2.65,2.65,-1.59,1.04,0,6.24,0.0,1.0,0.0,0.0,1.0,1,100.0,5.2,1.39,1,1.0,0,1.0,0,1.0,0,1.0,0,1.0
1970,'1',2.436,1.63,1.63,-0.978,1.04,0,3.84,0.0,1.0,0.0,0.0,1.0,1,100.0,3.2,0.58,1,1.0,0,1.0,0,1.0,0,1.0,0,1.0
1972,'1',2.794,1.148,1.71,-1.026,1.04,0,4.4,0.0,1.0,0.0,0.0,1.0,1,100.0,3.67,1.46,1,1.0,0,1.0,0,1.0,0,1.0,0,1.0
1972,'2',2.794,1.148,1.71,-1.026,1.04,0,4.4,0.0,1.0,0.0,0.0,1.0,1,100.0,3.67,1.08,1,1.0,0,1.0,0,1.0,0,1.0,0,1.0
1973,'1',2.794,1.029,1.71,-1.026,1.04,0,4.4,0.0,1.0,0.0,0.0,1.0,1,100.0,3.67,1.15,1,1.0,0,1.0,0,1.0,0,1.0,0,1.0
1973,'2',2.794,1.029,1.71,-1.026,1.04,0,4.4,0.0,1.0,0.0,0.0,1.0,1,100.0,3.67,0.83,1,1.0,0,1.0,0,1.0,0,1.0,0,1.0
1974,'1',2.794,0.671,1.71,-1.026,1.04,0,4.4,0.0,1.0,0.0,0.0,1.0,1,100.0,3.67,0.9,1,1.0,0,1.0,0,1.0,0,1.0,0,1.0
1974,'2',2.794,0.671,1.71,-1.026,1.04,0,4.4,0.0,1.0,0.0,0.0,1.0,1,100.0,3.67,1.76,1,1.0,0,1.0,0,1.0,0,1.0,0,1.0
1977,'1',29.313,2.868,11.55,-11.55,1.04,0,46.2,0.0,1.0,0.0,0.0,1.0,1,100.0,38.5,0.0,1,1.0,0,1.0,0,1.0,0,1.0,0,1.0
1979,'1',19.035,11.65,11.65,-6.99,1.04,0,30.0,0.0,1.0,0.0,0.0,1.0,1,100.0,25.0,7.45,1,1.0,0,1.0,0,1.0,0,1.0,0,1.0
1981,'1',153.396,-13.356,102.55,-61.53,1.042,1980,241.76,0.0,1.0,0.0,0.0,1.0,1,100.0,201.47,97.56,1,1.0,0,1.0,0,1.0,0,1.0,0,1.0
1982,'1',119.166,-13.356,102.55,-61.53,1.042,1980,241.76,0.0,1.0,0.0,0.0,1.0,1,100.0,201.47,53.38,1,1.0,0,1.0,0,1.0,0,1.0,0,1.0
1983,'1',94.946,-5.584,102.55,-61.53,1.04,0,241.76,0.0,1.0,0.0,0.0,1.0,1,100.0,201.47,84.57,1,1.0,0,1.0,0,1.0,0,1.0,0,1.0
1985,'1',21.319,7.517,7.517,-7.517,1.04,0,33.6,0.0,1.0,0.0,0.0,1.0,1,100.0,25.056,0.0,1,1.0,0,1.0,0,1.0,0,1.0,0,1.0
1987,'1',9.595,2.892,2.892,-2.892,1.04,0,1.26,0.0,1.0,0.0,0.0,1.0,1,100.0,9.64,0.0,1,1.0,0,1.0,0,1.0,0,1.0,0,1.0
1987,'2',14.86,4.472,4.472,-4.472,1.04,0,1.26,0.0,1.0,0.0,0.0,1.0,1,100.0,14.905,0.0,1,1.0,0,1.0,0,1.0,0,1.0,0,1.0
1993,'1',19.735,1.635,7.776,-7.776,1.04,0,31.11,0.0,1.0,0.0,0.0,1.0,1,100.0,25.92,0.0,1,1.0,0,1.0,0,1.0,0,1.0,0,1.0
1993,'2',19.735,1.635,6.426,-6.426,1.04,0,31.11,0.0,1.0,0.0,0.0,1.0,1,100.0,21.421,0.0,1,1.0,0,1.0,0,1.0,0,1.0,0,1.0
1994,'1',19.735,3.822,6.91,-6.91,1.04,0,31.11,0.0,1.0,0.0,0.0,1.0,1,100.0,23.035,0.0,1,1.0,0,1.0,0,1.0,0,1.0,0,1.0
1994,'2',19.735,3.822,6.778,-6.778,1.04,0,31.11,0.0,1.0,0.0,0.0,1.0,1,100.0,22.592,0.0,1,1.0,0,1.0,0,1.0,0,1.0,0,1.0
1996,'1',22.369,-8.214,13.69,-8.214,1.04,1995,100.0,0.0,1.0,0.0,0.0,1.0,1,100.0,29.38,6.11,1,1.0,0,1.0,0,1.0,0,1.0,0,1.0
1997,'1',22.369,13.69,13.69,-8.214,1.04,0,35.26,0.0,1.0,0.0,0.0,1.0,1,100.0,29.38,3.15,1,1.0,0,1.0,0,1.0,0,1.0,0,1.0
1997,'2',22.369,13.69,13.69,-8.214,1.04,0,35.26,0.0,1.0,0.0,0.0,1.0,1,100.0,29.38,5.59,1,1.0,0,1.0,0,1.0,0,1.0,0,1.0
1997,'3',22.369,13.69,13.69,-8.214,1.04,0,35.26,0.0,1.0,0.0,0.0,1.0,1,100.0,29.38,13.28,1,1.0,0,1.0,0,1.0,0,1.0,0,1.0
1999,'1',22.369,-0.15,13.69,-8.214,1.04,0,35.26,0.0,1.0,0.0,0.0,1.0,1,100.0,29.38,5.04,1,1.0,0,1.0,0,1.0,0,1.0,0,1.0
1999,'2',22.369,-0.15,13.69,-8.214,1.04,0,35.26,0.0,1.0,0.0,0.0,1.0,1,100.0,29.38,4.0,1,1.0,0,1.0,0,1.0,0,1.0,0,1.0
2001,'1',1.523,0.93,0.93,-0.558,1.04,0,2.4,0.0,1.0,0.0,0.0,1.0,1,100.0,2.0,0.95,1,1.0,0,1.0,0,1.0,0,1.0,0,1.0
2001,'2',1.523,0.93,0.93,-0.558,1.04,0,2.4,0.0,1.0,0.0,0.0,1.0,1,100.0,2.0,0.36,1,1.0,0,1.0,0,1.0,0,1.0,0,1.0
2001,'3',1.523,0.93,0.93,-0.558,1.04,0,2.4,0.0,1.0,0.0,0.0,1.0,1,100.0,2.0,0.59,1,1.0,0,1.0,0,1.0,0,1.0,0,1.0
2001,'4',1.523,0.93,0.93,-0.558,1.04,0,2.4,0.0,1.0,0.0,0.0,1.0,1,100.0,2.0,0.48,1,1.0,0,1.0,0,1.0,0,1.0,0,1.0
2001,'5',1.523,0.93,0.93,-0.558,1.04,0,2.4,0.0,1.0,0.0,0.0,1.0,1,100.0,2.0,0.66,1,1.0,0,1.0,0,1.0,0,1.0,0,1.0
2003,'1',10.379,-0.021,3.318,-3.318,1.04,0,18.96,0.0,1.0,0.0,0.0,1.0,1,100.0,11.059,0.0,1,1.0,0,1.0,0,1.0,0,1.0,0,1.0
2005,'1',35.633,-0.341,11.304,-11.304,1.04,0,56.16,0.0,1.0,0.0,0.0,1.0,1,100.0,37.68,0.0,1,1.0,0,1.0,0,1.0,0,1.0,0,1.0
2006,'1',35.633,-8.185,11.836,-11.836,1.04,0,56.16,0.0,1.0,0.0,0.0,1.0,1,100.0,39.453,0.0,1,1.0,0,1.0,0,1.0,0,1.0,0,1.0
2009,'1',21.662,7.014,7.014,-7.014,1.04,0,47.88,0.0,1.0,0.0,0.0,1.0,1,100.0,23.379,0.0,1,1.0,0,1.0,0,1.0,0,1.0,0,1.0
2010,'1',11.283,10.337,10.337,-10.337,1.04,0,47.88,0.0,1.0,0.0,0.0,1.0,1,100.0,34.456,0.0,1,1.0,0,1.0,0,1.0,0,1.0,0,1.0
2010,'2',30.379,10.65,10.65,-10.65,1.04,0,47.88,0.0,1.0,0.0,0.0,1.0,1,100.0,35.498,0.0,1,1.0,0,1.0,0,1.0,0,1.0,0,1.0
2010,'3',29.956,9.502,9.502,-9.502,1.04,0,47.88,0.0,1.0,0.0,0.0,1.0,1,100.0,31.673,0.0,1,1.0,0,1.0,0,1.0,0,1.0,0,1.0
2014,'1',103.69,10.068,115.35,-69.21,1.04,2011,297.04,0.0,1.0,0.0,0.0,1.0,1,100.0,247.53,103.69,1,1.0,0,1.0,0,1.0,0,1.0,0,1.0
2015,'1',133.498,-0.027,115.35,-69.21,1.04,0,297.04,0.0,1.0,0.0,0.0,1.0,1,100.0,247.53,27.66,1,1.0,0,1.0,0,1.0,0,1.0,0,1.0
2016,'1',188.465,10.068,115.35,-69.21,1.04,2011,297.04,0.0,1.0,0.0,0.0,1.0,1,100.0,247.53,112.93,1,1.0,0,1.0,0,1.0,0,1.0,0,1.0
2017,'1',188.465,10.068,115.35,-69.21,1.04,2011,297.04,0.0,1.0,0.0,0.0,1.0,1,100.0,247.53,48.25,1,1.0,0,1.0,0,1.0,0,1.0,0,1.0
2018,'1',91.095,10.068,115.35,-69.21,1.04,2011,297.04,0.0,1.0,0.0,0.0,1.0,1,100.0,247.53,52.79,1,1.0,0,1.0,0,1.0,0,1.0,0,1.0
2019,'1',96.985,10.068,115.35,-69.21,1.04,2011,297.04,0.0,1.0,0.0,0.0,1.0,1,100.0,247.53,64.57,1,1.0,0,1.0,0,1.0,0,1.0,0,1.0
0 / END OF GENERATOR DATA BEGIN BRANCH DATA
1,95,'1',0.04327,0.10271,0.00256,71.7,71.7,71.7,0.0,0.0,0.0,0.0,1,1,10.87,1,1.0,0,1.0,0,1.0,0,1.0
2,1,'1',0.03074,0.08122,0.00134,69.3,69.3,69.3,0.0,0.0,0.0,0.0,1,1,7.35,1,1.0,0,1.0,0,1.0,0,1.0
3,53,'1',0.02438,0.05724,0.00059,44.8,44.8,44.8,0.0,0.0,0.0,0.0,1,1,4.52,1,1.0,0,1.0,0,1.0,0,1.0
3,67,'1',0.05612,0.17261,0.00395,47.7,47.7,47.7,0.0,0.0,0.0,0.0,1,1,14.89,1,1.0,0,1.0,0,1.0,0,1.0
4,5,'1',0.0003,0.00107,0.0,82.8,82.8,82.8,0.0,0.0,0.0,0.0,1,1,0.0,1,1.0,0,1.0,0,1.0,0,1.0
4,191,'1',0.01607,0.04144,0.01127,54.8,54.8,54.8,0.0,0.0,0.0,0.0,1,1,11.98,1,1.0,0,1.0,0,1.0,0,1.0
4,192,'1',0.05254,0.16625,0.00469,33.0,33.0,33.0,0.0,0.0,0.0,0.0,1,1,15.2,1,1.0,0,1.0,0,1.0,0,1.0
4,201,'1',0.13401,0.31389,0.00527,58.2,58.2,58.2,0.0,0.0,0.0,0.0,1,1,22.58,1,1.0,0,1.0,0,1.0,0,1.0
4,207,'1',0.10204,0.20536,0.00623,45.0,45.0,45.0,0.0,0.0,0.0,0.0,1,1,19.52,1,1.0,0,1.0,0,1.0,0,1.0
4,210,'1',0.05588,0.09338,0.00812,39.0,39.0,39.0,0.0,0.0,0.0,0.0,1,1,14.38,1,1.0,0,1.0,0,1.0,0,1.0
4,276,'1',0.10507,0.22654,0.00602,62.8,62.8,62.8,0.0,0.0,0.0,0.0,1,1,20.02,1,1.0,0,1.0,0,1.0,0,1.0
4,354,'1',0.03809,0.09277,0.00129,54.6,54.6,54.6,0.0,0.0,0.0,0.0,1,1,7.98,1,1.0,0,1.0,0,1.0,0,1.0
6,4,'1',0.02589,0.06365,0.00135,66.2,66.2,66.2,0.0,0.0,0.0,0.0,1,1,5.75,1,1.0,0,1.0,0,1.0,0,1.0
6,124,'1',0.03242,0.09724,0.00154,62.3,62.3,62.3,0.0,0.0,0.0,0.0,1,1,7.29,1,1.0,0,1.0,0,1.0,0,1.0
6,191,'1',0.04859,0.10302,0.0091,58.3,58.3,58.3,0.0,0.0,0.0,0.0,1,1,17.08,1,1.0,0,1.0,0,1.0,0,1.0
7,9,'1',0.00021,0.00114,0.0,414.0,414.0,414.0,0.0,0.0,0.0,0.0,1,1,0.0,1,1.0,0,1.0,0,1.0,0,1.0
8,195,'1',0.00986,0.02697,0.00199,53.1,53.1,53.1,0.0,0.0,0.0,0.0,1,1,4.01,1,1.0,0,1.0,0,1.0,0,1.0
8,196,'1',0.00814,0.01812,0.00374,130.2,130.2,130.2,0.0,0.0,0.0,0.0,1,1,4.54,1,1.0,0,1.0,0,1.0,0,1.0
8,330,'1',0.01447,0.03495,0.00027,57.1,57.1,57.1,0.0,0.0,0.0,0.0,1,1,2.54,1,1.0,0,1.0,0,1.0,0,1.0
9,13,'1',0.00229,0.01313,0.00106,246.1,246.1,246.1,0.0,0.0,0.0,0.0,1,1,2.84,1,1.0,0,1.0,0,1.0,0,1.0
10,173,'1',0.00409,0.02949,0.00252,183.2,183.2,183.2,0.0,0.0,0.0,0.0,1,1,6.39,1,1.0,0,1.0,0,1.0,0,1.0
11,194,'1',0.02793,0.07798,0.00316,53.8,53.8,53.8,0.0,0.0,0.0,0.0,1,1,9.97,1,1.0,0,1.0,0,1.0,0,1.0
11,426,'1',0.00977,0.02571,0.00188,62.4,62.4,62.4,0.0,0.0,0.0,0.0,1,1,4.88,1,1.0,0,1.0,0,1.0,0,1.0
11,439,'1',0.01065,0.02922,0.00073,56.3,56.3,56.3,0.0,0.0,0.0,0.0,1,1,3.81,1,1.0,0,1.0,0,1.0,0,1.0
12,14,'1',0.01389,0.03578,0.0005,60.0,60.0,60.0,0.0,0.0,0.0,0.0,1,1,3.24,1,1.0,0,1.0,0,1.0,0,1.0
12,412,'1',0.03383,0.07323,0.00175,75.0,75.0,75.0,0.0,0.0,0.0,0.0,1,1,7.4,1,1.0,0,1.0,0,1.0,0,1.0
12,412,'2',0.03383,0.07323,0.00175,75.0,75.0,75.0,0.0,0.0,0.0,0.0,1,1,7.4,1,1.0,0,1.0,0,1.0,0,1.0
13,257,'1',0.0087,0.03396,0.03219,214.3,214.3,214.3,0.0,0.0,0.0,0.0,1,1,18.2,1,1.0,0,1.0,0,1.0,0,1.0
13,265,'1',0.00659,0.03908,0.0269,218.8,218.8,218.8,0.0,0.0,0.0,0.0,1,1,17.08,1,1.0,0,1.0,0,1.0,0,1.0
13,329,'1',0.00264,0.01373,0.00772,236.8,236.8,236.8,0.0,0.0,0.0,0.0,1,1,6.99,1,1.0,0,1.0,0,1.0,0,1.0
15,8,'1',0.00891,0.01924,0.00072,74.2,74.2,74.2,0.0,0.0,0.0,0.0,1,1,2.6,1,1.0,0,1.0,0,1.0,0,1.0
15,264,'1',0.00813,0.01726,0.00511,70.3,70.3,70.3,0.0,0.0,0.0,0.0,1,1,6.28,1,1.0,0,1.0,0,1.0,0,1.0
15,323,'1',0.03021,0.07932,0.00127,69.1,69.1,69.1,0.0,0.0,0.0,0.0,1,1,6.6,1,1.0,0,1.0,0,1.0,0,1.0
16,18,'1',0.0149,0.0381,0.00092,65.3,65.3,65.3,0.0,0.0,0.0,0.0,1,1,3.37,1,1.0,0,1.0,0,1.0,0,1.0
17,16,'1',0.0185,0.03503,0.00068,58.2,58.2,58.2,0.0,0.0,0.0,0.0,1,1,2.6,1,1.0,0,1.0,0,1.0,0,1.0
17,63,'1',0.04841,0.09586,0.00166,58.4,58.4,58.4,0.0,0.0,0.0,0.0,1,1,7.98,1,1.0,0,1.0,0,1.0,0,1.0
17,180,'1',0.01114,0.02965,0.01273,80.0,80.0,80.0,0.0,0.0,0.0,0.0,1,1,14.02,1,1.0,0,1.0,0,1.0,0,1.0
19,21,'1',0.00025,0.00116,0.0,165.6,165.6,165.6,0.0,0.0,0.0,0.0,1,1,0.0,1,1.0,0,1.0,0,1.0,0,1.0
20,18,'1',0.01014,0.02702,0.0003,60.7,60.7,60.7,0.0,0.0,0.0,0.0,1,1,2.22,1,1.0,0,1.0,0,1.0,0,1.0
20,64,'1',0.01277,0.03556,0.00503,53.9,53.9,53.9,0.0,0.0,0.0,0.0,1,1,7.72,1,1.0,0,1.0,0,1.0,0,1.0
21,92,'1',0.01189,0.04169,0.01094,193.4,193.4,193.4,0.0,0.0,0.0,0.0,1,1,12.02,1,1.0,0,1.0,0,1.0,0,1.0
22,577,'1',0.046,0.07097,0.00477,56.3,56.3,56.3,0.0,0.0,0.0,0.0,1,1,13.31,1,1.0,0,1.0,0,1.0,0,1.0
24,23,'1',0.01954,0.05007,0.00171,44.9,44.9,44.9,0.0,0.0,0.0,0.0,1,1,6.04,1,1.0,0,1.0,0,1.0,0,1.0
25,26,'1',0.0,0.001,0.0,82.8,82.8,82.8,0.0,0.0,0.0,0.0,1,1,0.0,1,1.0,0,1.0,0,1.0,0,1.0
25,69,'1',0.03099,0.08461,0.00075,48.7,48.7,48.7,0.0,0.0,0.0,0.0,1,1,5.05,1,1.0,0,1.0,0,1.0,0,1.0
25,324,'1',0.05501,0.14863,0.0122,64.6,64.6,64.6,0.0,0.0,0.0,0.0,1,1,24.16,1,1.0,0,1.0,0,1.0,0,1.0
25,352,'1',0.00927,0.02691,0.00532,58.3,58.3,58.3,0.0,0.0,0.0,0.0,1,1,7.18,1,1.0,0,1.0,0,1.0,0,1.0
27,28,'1',0.00027,0.00112,0.0,82.8,82.8,82.8,0.0,0.0,0.0,0.0,1,1,0.0,1,1.0,0,1.0,0,1.0,0,1.0
27,303,'1',0.0175,0.04935,0.00133,52.5,52.5,52.5,0.0,0.0,0.0,0.0,1,1,4.9,1,1.0,0,1.0,0,1.0,0,1.0
29,27,'1',0.03729,0.08293,0.00079,55.4,55.4,55.4,0.0,0.0,0.0,0.0,1,1,6.2,1,1.0,0,1.0,0,1.0,0,1.0
29,144,'1',0.01518,0.04249,0.00288,65.3,65.3,65.3,0.0,0.0,0.0,0.0,1,1,7.41,1,1.0,0,1.0,0,1.0,0,1.0
30,121,'1',0.04104,0.11293,0.00424,62.3,62.3,62.3,0.0,0.0,0.0,0.0,1,1,12.97,1,1.0,0,1.0,0,1.0,0,1.0
30,374,'1',0.06457,0.16601,0.00349,59.1,59.1,59.1,0.0,0.0,0.0,0.0,1,1,12.99,1,1.0,0,1.0,0,1.0,0,1.0
32,226,'1',0.02188,0.05892,0.00142,65.4,65.4,65.4,0.0,0.0,0.0,0.0,1,1,5.75,1,1.0,0,1.0,0,1.0,0,1.0
32,287,'1',0.04149,0.07396,0.00185,71.6,71.6,71.6,0.0,0.0,0.0,0.0,1,1,7.14,1,1.0,0,1.0,0,1.0,0,1.0
33,32,'1',0.02363,0.05725,0.00363,100.0,100.0,100.0,0.0,0.0,0.0,0.0,1,1,9.07,1,1.0,0,1.0,0,1.0,0,1.0
33,45,'1',0.01601,0.04724,0.00496,61.8,61.8,61.8,0.0,0.0,0.0,0.0,1,1,8.34,1,1.0,0,1.0,0,1.0,0,1.0
34,36,'1',0.00027,0.001,0.0,200.0,200.0,200.0,0.0,0.0,0.0,0.0,1,1,0.0,1,1.0,0,1.0,0,1.0,0,1.0
35,149,'1',0.00928,0.02211,0.00043,66.4,66.4,66.4,0.0,0.0,0.0,0.0,1,1,2.4,1,1.0,0,1.0,0,1.0,0,1.0
35,151,'1',0.00318,0.01048,0.00051,82.7,82.7,82.7,0.0,0.0,0.0,0.0,1,1,1.39,1,1.0,0,1.0,0,1.0,0,1.0
35,151,'2',0.00318,0.01048,0.00051,82.7,82.7,82.7,0.0,0.0,0.0,0.0,1,1,1.39,1,1.0,0,1.0,0,1.0,0,1.0
36,37,'1',0.00631,0.03158,0.00755,243.3,243.3,243.3,0.0,0.0,0.0,0.0,1,1,9.57,1,1.0,0,1.0,0,1.0,0,1.0
36,114,'1',0.00504,0.03449,0.13787,350.0,350.0,350.0,0.0,0.0,0.0,0.0,1,1,36.05,1,1.0,0,1.0,0,1.0,0,1.0
36,114,'2',0.00504,0.03449,0.13787,350.0,350.0,350.0,0.0,0.0,0.0,0.0,1,1,36.05,1,1.0,0,1.0,0,1.0,0,1.0
36,411,'1',0.00629,0.03107,0.00742,264.1,264.1,264.1,0.0,0.0,0.0,0.0,1,1,10.08,1,1.0,0,1.0,0,1.0,0,1.0
37,136,'1',0.00514,0.02521,0.03353,226.0,226.0,226.0,0.0,0.0,0.0,0.0,1,1,15.66,1,1.0,0,1.0,0,1.0,0,1.0
38,145,'1',0.00866,0.01765,0.00018,62.1,62.1,62.1,0.0,0.0,0.0,0.0,1,1,1.36,1,1.0,0,1.0,0,1.0,0,1.0
38,281,'1',0.01075,0.03111,0.00205,55.7,55.7,55.7,0.0,0.0,0.0,0.0,1,1,4.96,1,1.0,0,1.0,0,1.0,0,1.0
39,35,'1',0.01386,0.03798,0.00105,68.3,68.3,68.3,0.0,0.0,0.0,0.0,1,1,3.88,1,1.0,0,1.0,0,1.0,0,1.0
39,40,'1',0.0,0.001,0.0,82.8,82.8,82.8,0.0,0.0,0.0,0.0,1,1,0.0,1,1.0,0,1.0,0,1.0,0,1.0
39,41,'1',0.01749,0.05347,0.00123,68.1,68.1,68.1,0.0,0.0,0.0,0.0,1,1,5.08,1,1.0,0,1.0,0,1.0,0,1.0
40,146,'1',0.01479,0.02784,0.00026,59.1,59.1,59.1,0.0,0.0,0.0,0.0,1,1,0.0,1,1.0,0,1.0,0,1.0,0,1.0
41,412,'1',0.01536,0.04278,0.0005,72.7,72.7,72.7,0.0,0.0,0.0,0.0,1,1,3.13,1,1.0,0,1.0,0,1.0,0,1.0
42,43,'1',0.00023,0.00116,0.0,82.8,82.8,82.8,0.0,0.0,0.0,0.0,1,1,0.0,1,1.0,0,1.0,0,1.0,0,1.0
42,147,'1',0.01021,0.02569,0.00031,85.0,85.0,85.0,0.0,0.0,0.0,0.0,1,1,1.89,1,1.0,0,1.0,0,1.0,0,1.0
42,172,'1',0.01034,0.02954,0.00188,55.8,55.8,55.8,0.0,0.0,0.0,0.0,1,1,4.8,1,1.0,0,1.0,0,1.0,0,1.0
44,45,'1',0.00028,0.00119,0.0,82.8,82.8,82.8,0.0,0.0,0.0,0.0,1,1,0.0,1,1.0,0,1.0,0,1.0,0,1.0
46,31,'1',0.05038,0.10012,0.00098,53.7,53.7,53.7,0.0,0.0,0.0,0.0,1,1,5.73,1,1.0,0,1.0,0,1.0,0,1.0
47,50,'1',0.0344,0.09608,0.00122,53.3,53.3,53.3,0.0,0.0,0.0,0.0,1,1,6.98,1,1.0,0,1.0,0,1.0,0,1.0
48,49,'1',0.00024,0.00112,0.0,82.8,82.8,82.8,0.0,0.0,0.0,0.0,1,1,0.0,1,1.0,0,1.0,0,1.0,0,1.0
49,50,'1',0.02865,0.06052,0.00083,50.0,50.0,50.0,0.0,0.0,0.0,0.0,1,1,4.61,1,1.0,0,1.0,0,1.0,0,1.0
49,1700,'1',0.04331,0.11095,0.00129,55.9,55.9,55.9,0.0,0.0,0.0,0.0,1,1,7.51,1,1.0,0,1.0,0,1.0,0,1.0
50,51,'1',0.00027,0.00119,0.0,82.8,82.8,82.8,0.0,0.0,0.0,0.0,1,1,0.0,1,1.0,0,1.0,0,1.0,0,1.0
50,1705,'1',0.01821,0.04815,0.00344,57.0,57.0,57.0,0.0,0.0,0.0,0.0,1,1,7.42,1,1.0,0,1.0,0,1.0,0,1.0
52,297,'1',0.03139,0.07961,0.00091,55.5,55.5,55.5,0.0,0.0,0.0,0.0,1,1,6.11,1,1.0,0,1.0,0,1.0,0,1.0
52,1907,'1',0.07425,0.14976,0.0053,58.1,58.1,58.1,0.0,0.0,0.0,0.0,1,1,14.77,1,1.0,0,1.0,0,1.0,0,1.0
53,52,'1',0.0326,0.07476,0.00221,47.7,47.7,47.7,0.0,0.0,0.0,0.0,1,1,7.63,1,1.0,0,1.0,0,1.0,0,1.0
53,54,'1',0.00027,0.00112,0.0,82.8,82.8,82.8,0.0,0.0,0.0,0.0,1,1,0.0,1,1.0,0,1.0,0,1.0,0,1.0
55,57,'1',0.0003,0.0011,0.0,414.0,414.0,414.0,0.0,0.0,0.0,0.0,1,1,0.0,1,1.0,0,1.0,0,1.0,0,1.0
55,1614,'1',0.00798,0.04074,0.02479,183.5,183.5,183.5,0.0,0.0,0.0,0.0,1,1,17.41,1,1.0,0,1.0,0,1.0,0,1.0
58,56,'1',0.02677,0.04946,0.00059,59.6,59.6,59.6,0.0,0.0,0.0,0.0,1,1,3.35,1,1.0,0,1.0,0,1.0,0,1.0
59,56,'1',0.01262,0.03339,0.00061,65.5,65.5,65.5,0.0,0.0,0.0,0.0,1,1,3.05,1,1.0,0,1.0,0,1.0,0,1.0
60,62,'1',0.03515,0.10136,0.00063,54.1,54.1,54.1,0.0,0.0,0.0,0.0,1,1,5.27,1,1.0,0,1.0,0,1.0,0,1.0
62,1603,'1',0.03241,0.07489,0.0092,49.6,49.6,49.6,0.0,0.0,0.0,0.0,1,1,13.98,1,1.0,0,1.0,0,1.0,0,1.0
63,67,'1',0.02682,0.06666,0.00147,62.2,62.2,62.2,0.0,0.0,0.0,0.0,1,1,5.95,1,1.0,0,1.0,0,1.0,0,1.0
64,91,'1',0.0235,0.05751,0.00114,55.9,55.9,55.9,0.0,0.0,0.0,0.0,1,1,5.19,1,1.0,0,1.0,0,1.0,0,1.0
65,66,'1',0.03205,0.08264,0.00173,60.6,60.6,60.6,0.0,0.0,0.0,0.0,1,1,6.92,1,1.0,0,1.0,0,1.0,0,1.0
65,109,'1',0.0582,0.10902,0.00112,57.9,57.9,57.9,0.0,0.0,0.0,0.0,1,1,6.98,1,1.0,0,1.0,0,1.0,0,1.0
67,71,'1',0.03739,0.09462,0.00638,78.4,78.4,78.4,0.0,0.0,0.0,0.0,1,1,13.19,1,1.0,0,1.0,0,1.0,0,1.0
68,69,'1',0.03605,0.07795,0.00168,55.9,55.9,55.9,0.0,0.0,0.0,0.0,1,1,7.15,1,1.0,0,1.0,0,1.0,0,1.0
68,269,'1',0.01673,0.04281,0.00189,52.3,52.3,52.3,0.0,0.0,0.0,0.0,1,1,5.86,1,1.0,0,1.0,0,1.0,0,1.0
69,22,'1',0.02552,0.06993,0.00167,52.1,52.1,52.1,0.0,0.0,0.0,0.0,1,1,7.44,1,1.0,0,1.0,0,1.0,0,1.0
70,72,'1',0.00024,0.00118,0.0,165.6,165.6,165.6,0.0,0.0,0.0,0.0,1,1,0.0,1,1.0,0,1.0,0,1.0,0,1.0
70,1908,'1',0.00723,0.03362,0.01815,187.2,187.2,187.2,0.0,0.0,0.0,0.0,1,1,13.36,1,1.0,0,1.0,0,1.0,0,1.0
71,107,'1',0.05494,0.10268,0.0026,57.7,57.7,57.7,0.0,0.0,0.0,0.0,1,1,9.75,1,1.0,0,1.0,0,1.0,0,1.0
73,75,'1',0.00028,0.00107,0.0,165.6,165.6,165.6,0.0,0.0,0.0,0.0,1,1,0.0,1,1.0,0,1.0,0,1.0,0,1.0
75,84,'1',0.00521,0.02882,0.00405,208.8,208.8,208.8,0.0,0.0,0.0,0.0,1,1,7.44,1,1.0,0,1.0,0,1.0,0,1.0
76,2020,'1',0.0024,0.02943,0.38186,1035.0,1035.0,1035.0,0.0,0.0,0.0,0.0,1,1,59.77,1,1.0,0,1.0,0,1.0,0,1.0
77,84,'1',0.00479,0.03165,0.0031,210.6,210.6,210.6,0.0,0.0,0.0,0.0,1,1,5.69,1,1.0,0,1.0,0,1.0,0,1.0
77,85,'1',0.00594,0.03048,0.00769,254.8,254.8,254.8,0.0,0.0,0.0,0.0,1,1,8.92,1,1.0,0,1.0,0,1.0,0,1.0
78,94,'1',0.00615,0.01244,0.00026,69.3,69.3,69.3,0.0,0.0,0.0,0.0,1,1,0.0,1,1.0,0,1.0,0,1.0,0,1.0
78,95,'1',0.03284,0.07257,0.00169,71.9,71.9,71.9,0.0,0.0,0.0,0.0,1,1,6.89,1,1.0,0,1.0,0,1.0,0,1.0
78,97,'1',0.02774,0.05582,0.00315,62.5,62.5,62.5,0.0,0.0,0.0,0.0,1,1,8.01,1,1.0,0,1.0,0,1.0,0,1.0
79,78,'1',0.02001,0.05675,0.00131,53.9,53.9,53.9,0.0,0.0,0.0,0.0,1,1,5.41,1,1.0,0,1.0,0,1.0,0,1.0
79,86,'1',0.01566,0.03864,0.00125,67.1,67.1,67.1,0.0,0.0,0.0,0.0,1,1,4.67,1,1.0,0,1.0,0,1.0,0,1.0
80,376,'1',0.03789,0.09223,0.00152,66.3,66.3,66.3,0.0,0.0,0.0,0.0,1,1,8.1,1,1.0,0,1.0,0,1.0,0,1.0
81,80,'1',0.02967,0.07681,0.00046,64.2,64.2,64.2,0.0,0.0,0.0,0.0,1,1,4.42,1,1.0,0,1.0,0,1.0,0,1.0
81,93,'1',0.01988,0.04902,0.00211,58.3,58.3,58.3,0.0,0.0,0.0,0.0,1,1,7.02,1,1.0,0,1.0,0,1.0,0,1.0
82,84,'1',0.00029,0.00102,0.0,414.0,414.0,414.0,0.0,0.0,0.0,0.0,1,1,0.0,1,1.0,0,1.0,0,1.0,0,1.0
83,81,'1',0.00381,0.01076,0.0003,57.4,57.4,57.4,0.0,0.0,0.0,0.0,1,1,1.07,1,1.0,0,1.0,0,1.0,0,1.0
84,96,'1',0.00631,0.03691,0.01119,194.9,194.9,194.9,0.0,0.0,0.0,0.0,1,1,12.93,1,1.0,0,1.0,0,1.0,0,1.0
85,87,'1',0.00024,0.00113,0.0,165.6,165.6,165.6,0.0,0.0,0.0,0.0,1,1,0.0,1,1.0,0,1.0,0,1.0,0,1.0
85,114,'1',0.00742,0.04285,0.08388,261.2,261.2,261.2,0.0,0.0,0.0,0.0,1,1,33.39,1,1.0,0,1.0,0,1.0,0,1.0
85,1759,'1',0.00469,0.02961,0.03061,325.0,325.0,325.0,0.0,0.0,0.0,0.0,1,1,16.4,1,1.0,0,1.0,0,1.0,0,1.0
86,80,'1',0.01903,0.045,0.00115,62.2,62.2,62.2,0.0,0.0,0.0,0.0,1,1,5.09,1,1.0,0,1.0,0,1.0,0,1.0
88,1759,'1',0.01016,0.06325,0.01348,187.2,187.2,187.2,0.0,0.0,0.0,0.0,1,1,16.14,1,1.0,0,1.0,0,1.0,0,1.0
89,376,'1',0.0307,0.08586,0.00065,57.5,57.5,57.5,0.0,0.0,0.0,0.0,1,1,5.36,1,1.0,0,1.0,0,1.0,0,1.0
90,92,'1',0.00023,0.00103,0.0,414.0,414.0,414.0,0.0,0.0,0.0,0.0,1,1,0.0,1,1.0,0,1.0,0,1.0,0,1.0
92,77,'1',0.00549,0.03185,0.00652,216.6,216.6,216.6,0.0,0.0,0.0,0.0,1,1,8.99,1,1.0,0,1.0,0,1.0,0,1.0
93,78,'1',0.00615,0.01244,0.00026,69.3,69.3,69.3,0.0,0.0,0.0,0.0,1,1,1.02,1,1.0,0,1.0,0,1.0,0,1.0
93,94,'1',0.0,0.001,0.0,82.8,82.8,82.8,0.0,0.0,0.0,0.0,1,1,0.0,1,1.0,0,1.0,0,1.0,0,1.0
94,81,'1',0.01988,0.04902,0.00211,58.3,58.3,58.3,0.0,0.0,0.0,0.0,1,1,0.0,1,1.0,0,1.0,0,1.0,0,1.0
95,74,'1',0.01816,0.04437,0.00069,58.9,58.9,58.9,0.0,0.0,0.0,0.0,1,1,3.65,1,1.0,0,1.0,0,1.0,0,1.0
96,77,'1',0.00225,0.01514,0.0116,210.8,210.8,210.8,0.0,0.0,0.0,0.0,1,1,9.14,1,1.0,0,1.0,0,1.0,0,1.0
97,71,'1',0.03271,0.08645,0.00135,63.9,63.9,63.9,0.0,0.0,0.0,0.0,1,1,7.04,1,1.0,0,1.0,0,1.0,0,1.0
98,99,'1',0.00897,0.01897,0.00274,60.1,60.1,60.1,0.0,0.0,0.0,0.0,1,1,5.06,1,1.0,0,1.0,0,1.0,0,1.0
...